CHEMBL182493
     RDKit          2D

 34 38  0  0  0  0  0  0  0  0999 V2000
   11.5676   -0.6934    0.0000 C   0  0  0  0  0  0  0  0  0  0  0  0
   10.8294   -0.0240    0.0000 C   0  0  0  0  0  0  0  0  0  0  0  0
    9.8806   -0.3284    0.0000 C   0  0  0  0  0  0  0  0  0  0  0  0
    9.1426    0.3410    0.0000 C   0  0  0  0  0  0  0  0  0  0  0  0
    9.3532    1.3148    0.0000 C   0  0  0  0  0  0  0  0  0  0  0  0
    8.7704    2.1230    0.0000 C   0  0  0  0  0  0  0  0  0  0  0  0
    7.7740    2.1266    0.0000 C   0  0  0  0  0  0  0  0  0  0  0  0
    7.2772    2.9944    0.0000 C   0  0  0  0  0  0  0  0  0  0  0  0
    6.2772    2.9980    0.0000 C   0  0  0  0  0  0  0  0  0  0  0  0
    5.7740    2.1338    0.0000 N   0  0  0  0  0  0  0  0  0  0  0  0
    6.2708    1.2660    0.0000 C   0  0  0  0  0  0  0  0  0  0  0  0
    5.7678    0.4018    0.0000 N   0  0  0  0  0  0  0  0  0  0  0  0
    4.7678    0.4052    0.0000 C   0  0  0  0  0  0  0  0  0  0  0  0
    4.2708    1.2728    0.0000 C   0  0  0  0  0  0  0  0  0  0  0  0
    3.2708    1.2762    0.0000 C   0  0  0  0  0  0  0  0  0  0  0  0
    2.7678    0.4120    0.0000 C   0  0  0  0  0  0  0  0  0  0  0  0
    3.2648   -0.4556    0.0000 C   0  0  0  0  0  0  0  0  0  0  0  0
    4.2648   -0.4590    0.0000 C   0  0  0  0  0  0  0  0  0  0  0  0
    2.7620   -1.3200    0.0000 C   0  0  0  0  0  0  0  0  0  0  0  0
    3.6264   -1.8228    0.0000 F   0  0  0  0  0  0  0  0  0  0  0  0
    2.7588   -2.3200    0.0000 F   0  0  0  0  0  0  0  0  0  0  0  0
    1.7620   -1.3168    0.0000 F   0  0  0  0  0  0  0  0  0  0  0  0
    7.2708    1.2624    0.0000 N   0  0  0  0  0  0  0  0  0  0  0  0
    9.3590    2.9270    0.0000 C   0  0  0  0  0  0  0  0  0  0  0  0
   10.3056    2.6158    0.0000 N   0  0  0  0  0  0  0  0  0  0  0  0
   10.3020    1.6194    0.0000 N   0  0  0  0  0  0  0  0  0  0  0  0
   11.0402    0.9500    0.0000 N   0  0  0  0  0  0  0  0  0  0  0  0
    9.0546    3.8758    0.0000 C   0  0  0  0  0  0  0  0  0  0  0  0
    8.0772    4.0874    0.0000 C   0  0  0  0  0  0  0  0  0  0  0  0
    7.7718    5.0396    0.0000 C   0  0  0  0  0  0  0  0  0  0  0  0
    8.4436    5.7802    0.0000 C   0  0  0  0  0  0  0  0  0  0  0  0
    8.1382    6.7324    0.0000 F   0  0  0  0  0  0  0  0  0  0  0  0
    9.4210    5.5686    0.0000 C   0  0  0  0  0  0  0  0  0  0  0  0
    9.7264    4.6164    0.0000 C   0  0  0  0  0  0  0  0  0  0  0  0
  1  2  1  0
  2  3  1  0
  3  4  2  0
  4  5  1  0
  5  6  2  0
  7  8  2  0
  8  9  1  0
  9 10  2  0
 10 11  1  0
 12 13  1  0
 13 14  2  0
 14 15  1  0
 15 16  2  0
 16 17  1  0
 18 13  1  0
 17 18  2  0
 17 19  1  0
 19 20  1  0
 19 21  1  0
 19 22  1  0
 11 12  1  0
 23  7  1  0
 11 23  2  0
  6  7  1  0
  6 24  1  0
 26  5  1  0
 25 26  1  0
 27  2  2  0
 26 27  1  0
 24 25  2  0
 24 28  1  0
 28 29  2  0
 29 30  1  0
 30 31  2  0
 31 32  1  0
 31 33  1  0
 34 28  1  0
 33 34  2  0
M  END
>  <compound_chembl_id>  (1) 
CHEMBL182493

>  <assay_id>  (1) 
302524

>  <doc_id>  (1) 
21080

>  <description>  (1) 
Binding affinity for human cyclin-dependent kinase 2

>  <assay_organism>  (1) 
Homo sapiens

>  <assay_chembl_id>  (1) 
CHEMBL827377

>  <aidx>  (1) 
CLD0

>  <pref_name>  (1) 
Cyclin-dependent kinase 2

>  <activity_id>  (1) 
1438958

>  <molregno>  (1) 
305637

>  <standard_relation>  (1) 
>

>  <standard_value>  (1) 
19950.

>  <standard_units>  (1) 
nM

>  <standard_flag>  (1) 
1

>  <standard_type>  (1) 
Ki

>  <toid>  (1) 


>  <upper_value>  (1) 


>  <standard_upper_value>  (1) 


>  <src_id (#1)>  (1) 
1

>  <type>  (1) 
Ki

>  <relation>  (1) 
>

>  <value>  (1) 
19.95

>  <units>  (1) 
uM

>  <text_value>  (1) 


>  <standard_text_value>  (1) 


>  <standard_inchi_key>  (1) 
TWQUOUJLNRGSRZ-UHFFFAOYSA-N

>  <canonical_smiles>  (1) 
Cc1ccc2c(c3ccnc(Nc4cccc(c4)C(F)(F)F)n3)c(nn2n1)c5ccc(F)cc5

$$$$
CHEMBL182326
     RDKit          2D

 32 36  0  0  0  0  0  0  0  0999 V2000
   11.5676   -0.6934    0.0000 C   0  0  0  0  0  0  0  0  0  0  0  0
   10.8294   -0.0240    0.0000 C   0  0  0  0  0  0  0  0  0  0  0  0
    9.8806   -0.3284    0.0000 C   0  0  0  0  0  0  0  0  0  0  0  0
    9.1426    0.3410    0.0000 C   0  0  0  0  0  0  0  0  0  0  0  0
    9.3532    1.3148    0.0000 C   0  0  0  0  0  0  0  0  0  0  0  0
    8.7704    2.1230    0.0000 C   0  0  0  0  0  0  0  0  0  0  0  0
    7.7740    2.1266    0.0000 C   0  0  0  0  0  0  0  0  0  0  0  0
    7.2772    2.9944    0.0000 C   0  0  0  0  0  0  0  0  0  0  0  0
    6.2772    2.9980    0.0000 C   0  0  0  0  0  0  0  0  0  0  0  0
    5.7740    2.1338    0.0000 N   0  0  0  0  0  0  0  0  0  0  0  0
    6.2708    1.2660    0.0000 C   0  0  0  0  0  0  0  0  0  0  0  0
    5.7678    0.4018    0.0000 N   0  0  0  0  0  0  0  0  0  0  0  0
    4.7678    0.4052    0.0000 C   0  0  0  0  0  0  0  0  0  0  0  0
    4.2708    1.2728    0.0000 C   0  0  0  0  0  0  0  0  0  0  0  0
    3.2708    1.2762    0.0000 C   0  0  0  0  0  0  0  0  0  0  0  0
    2.7678    0.4120    0.0000 C   0  0  0  0  0  0  0  0  0  0  0  0
    1.7678    0.4154    0.0000 F   0  0  0  0  0  0  0  0  0  0  0  0
    3.2648   -0.4556    0.0000 C   0  0  0  0  0  0  0  0  0  0  0  0
    2.7620   -1.3200    0.0000 F   0  0  0  0  0  0  0  0  0  0  0  0
    4.2648   -0.4590    0.0000 C   0  0  0  0  0  0  0  0  0  0  0  0
    7.2708    1.2624    0.0000 N   0  0  0  0  0  0  0  0  0  0  0  0
    9.3590    2.9270    0.0000 C   0  0  0  0  0  0  0  0  0  0  0  0
   10.3056    2.6158    0.0000 N   0  0  0  0  0  0  0  0  0  0  0  0
   10.3020    1.6194    0.0000 N   0  0  0  0  0  0  0  0  0  0  0  0
   11.0402    0.9500    0.0000 N   0  0  0  0  0  0  0  0  0  0  0  0
    9.0546    3.8758    0.0000 C   0  0  0  0  0  0  0  0  0  0  0  0
    8.0772    4.0874    0.0000 C   0  0  0  0  0  0  0  0  0  0  0  0
    7.7718    5.0396    0.0000 C   0  0  0  0  0  0  0  0  0  0  0  0
    8.4436    5.7802    0.0000 C   0  0  0  0  0  0  0  0  0  0  0  0
    8.1382    6.7324    0.0000 F   0  0  0  0  0  0  0  0  0  0  0  0
    9.4210    5.5686    0.0000 C   0  0  0  0  0  0  0  0  0  0  0  0
    9.7264    4.6164    0.0000 C   0  0  0  0  0  0  0  0  0  0  0  0
  1  2  1  0
  2  3  1  0
  3  4  2  0
  4  5  1  0
  5  6  2  0
  7  8  2  0
  8  9  1  0
  9 10  2  0
 10 11  1  0
 12 13  1  0
 13 14  2  0
 14 15  1  0
 15 16  2  0
 16 17  1  0
 16 18  1  0
 18 19  1  0
 20 13  1  0
 18 20  2  0
 11 12  1  0
 21  7  1  0
 11 21  2  0
  6  7  1  0
  6 22  1  0
 24  5  1  0
 23 24  1  0
 25  2  2  0
 24 25  1  0
 22 23  2  0
 22 26  1  0
 26 27  2  0
 27 28  1  0
 28 29  2  0
 29 30  1  0
 29 31  1  0
 32 26  1  0
 31 32  2  0
M  END
>  <compound_chembl_id>  (2) 
CHEMBL182326

>  <assay_id>  (2) 
302524

>  <doc_id>  (2) 
21080

>  <description>  (2) 
Binding affinity for human cyclin-dependent kinase 2

>  <assay_organism>  (2) 
Homo sapiens

>  <assay_chembl_id>  (2) 
CHEMBL827377

>  <aidx>  (2) 
CLD0

>  <pref_name>  (2) 
Cyclin-dependent kinase 2

>  <activity_id>  (2) 
1438962

>  <molregno>  (2) 
305651

>  <standard_relation>  (2) 
>

>  <standard_value>  (2) 
19950.

>  <standard_units>  (2) 
nM

>  <standard_flag>  (2) 
1

>  <standard_type>  (2) 
Ki

>  <src_id (#1)>  (2) 
1

>  <type>  (2) 
Ki

>  <relation>  (2) 
>

>  <value>  (2) 
19.95

>  <units>  (2) 
uM

>  <standard_inchi_key>  (2) 
CYHPFZLFUXOCJJ-UHFFFAOYSA-N

>  <canonical_smiles>  (2) 
Cc1ccc2c(c3ccnc(Nc4ccc(F)c(F)c4)n3)c(nn2n1)c5ccc(F)cc5

$$$$
CHEMBL183064
     RDKit          2D

 34 39  0  0  0  0  0  0  0  0999 V2000
   11.5676   -0.6934    0.0000 C   0  0  0  0  0  0  0  0  0  0  0  0
   10.8294   -0.0240    0.0000 C   0  0  0  0  0  0  0  0  0  0  0  0
    9.8806   -0.3284    0.0000 C   0  0  0  0  0  0  0  0  0  0  0  0
    9.1426    0.3410    0.0000 C   0  0  0  0  0  0  0  0  0  0  0  0
    9.3532    1.3148    0.0000 C   0  0  0  0  0  0  0  0  0  0  0  0
    8.7704    2.1230    0.0000 C   0  0  0  0  0  0  0  0  0  0  0  0
    7.7740    2.1266    0.0000 C   0  0  0  0  0  0  0  0  0  0  0  0
    7.2772    2.9944    0.0000 C   0  0  0  0  0  0  0  0  0  0  0  0
    6.2772    2.9980    0.0000 C   0  0  0  0  0  0  0  0  0  0  0  0
    5.7740    2.1338    0.0000 N   0  0  0  0  0  0  0  0  0  0  0  0
    6.2708    1.2660    0.0000 C   0  0  0  0  0  0  0  0  0  0  0  0
    5.7678    0.4018    0.0000 N   0  0  0  0  0  0  0  0  0  0  0  0
    4.7678    0.4052    0.0000 C   0  0  0  0  0  0  0  0  0  0  0  0
    4.2708    1.2728    0.0000 C   0  0  0  0  0  0  0  0  0  0  0  0
    3.2708    1.2762    0.0000 C   0  0  0  0  0  0  0  0  0  0  0  0
    2.7678    0.4120    0.0000 C   0  0  0  0  0  0  0  0  0  0  0  0
    1.7678    0.4154    0.0000 O   0  0  0  0  0  0  0  0  0  0  0  0
    1.2648   -0.4488    0.0000 C   0  0  0  0  0  0  0  0  0  0  0  0
    1.7622   -1.3166    0.0000 C   0  0  0  0  0  0  0  0  0  0  0  0
    2.7620   -1.3200    0.0000 O   0  0  0  0  0  0  0  0  0  0  0  0
    3.2648   -0.4556    0.0000 C   0  0  0  0  0  0  0  0  0  0  0  0
    4.2648   -0.4590    0.0000 C   0  0  0  0  0  0  0  0  0  0  0  0
    7.2708    1.2624    0.0000 N   0  0  0  0  0  0  0  0  0  0  0  0
    9.3590    2.9270    0.0000 C   0  0  0  0  0  0  0  0  0  0  0  0
   10.3056    2.6158    0.0000 N   0  0  0  0  0  0  0  0  0  0  0  0
   10.3020    1.6194    0.0000 N   0  0  0  0  0  0  0  0  0  0  0  0
   11.0402    0.9500    0.0000 N   0  0  0  0  0  0  0  0  0  0  0  0
    9.0546    3.8758    0.0000 C   0  0  0  0  0  0  0  0  0  0  0  0
    8.0772    4.0874    0.0000 C   0  0  0  0  0  0  0  0  0  0  0  0
    7.7718    5.0396    0.0000 C   0  0  0  0  0  0  0  0  0  0  0  0
    8.4436    5.7802    0.0000 C   0  0  0  0  0  0  0  0  0  0  0  0
    8.1382    6.7324    0.0000 F   0  0  0  0  0  0  0  0  0  0  0  0
    9.4210    5.5686    0.0000 C   0  0  0  0  0  0  0  0  0  0  0  0
    9.7264    4.6164    0.0000 C   0  0  0  0  0  0  0  0  0  0  0  0
  1  2  1  0
  2  3  1  0
  3  4  2  0
  4  5  1  0
  5  6  2  0
  7  8  2  0
  8  9  1  0
  9 10  2  0
 10 11  1  0
 12 13  1  0
 13 14  2  0
 14 15  1  0
 15 16  2  0
 16 17  1  0
 17 18  1  0
 18 19  1  0
 19 20  1  0
 21 16  1  0
 20 21  1  0
 22 13  1  0
 21 22  2  0
 11 12  1  0
 23  7  1  0
 11 23  2  0
  6  7  1  0
  6 24  1  0
 26  5  1  0
 25 26  1  0
 27  2  2  0
 26 27  1  0
 24 25  2  0
 24 28  1  0
 28 29  2  0
 29 30  1  0
 30 31  2  0
 31 32  1  0
 31 33  1  0
 34 28  1  0
 33 34  2  0
M  END
>  <compound_chembl_id>  (3) 
CHEMBL183064

>  <assay_id>  (3) 
302524

>  <doc_id>  (3) 
21080

>  <description>  (3) 
Binding affinity for human cyclin-dependent kinase 2

>  <assay_organism>  (3) 
Homo sapiens

>  <assay_chembl_id>  (3) 
CHEMBL827377

>  <aidx>  (3) 
CLD0

>  <pref_name>  (3) 
Cyclin-dependent kinase 2

>  <activity_id>  (3) 
1439061

>  <molregno>  (3) 
305664

>  <standard_relation>  (3) 
>

>  <standard_value>  (3) 
19950.

>  <standard_units>  (3) 
nM

>  <standard_flag>  (3) 
1

>  <standard_type>  (3) 
Ki

>  <src_id (#1)>  (3) 
1

>  <type>  (3) 
Ki

>  <relation>  (3) 
>

>  <value>  (3) 
19.95

>  <units>  (3) 
uM

>  <standard_inchi_key>  (3) 
MYSOMHSTKVRJRA-UHFFFAOYSA-N

>  <canonical_smiles>  (3) 
Cc1ccc2c(c3ccnc(Nc4ccc5OCCOc5c4)n3)c(nn2n1)c6ccc(F)cc6

$$$$
CHEMBL361038
     RDKit          2D

 35 39  0  0  0  0  0  0  0  0999 V2000
   11.5676   -0.6934    0.0000 C   0  0  0  0  0  0  0  0  0  0  0  0
   10.8294   -0.0240    0.0000 C   0  0  0  0  0  0  0  0  0  0  0  0
    9.8806   -0.3284    0.0000 C   0  0  0  0  0  0  0  0  0  0  0  0
    9.1426    0.3410    0.0000 C   0  0  0  0  0  0  0  0  0  0  0  0
    9.3532    1.3148    0.0000 C   0  0  0  0  0  0  0  0  0  0  0  0
    8.7704    2.1230    0.0000 C   0  0  0  0  0  0  0  0  0  0  0  0
    7.7740    2.1266    0.0000 C   0  0  0  0  0  0  0  0  0  0  0  0
    7.2772    2.9944    0.0000 C   0  0  0  0  0  0  0  0  0  0  0  0
    6.2772    2.9980    0.0000 C   0  0  0  0  0  0  0  0  0  0  0  0
    5.7740    2.1338    0.0000 N   0  0  0  0  0  0  0  0  0  0  0  0
    6.2708    1.2660    0.0000 C   0  0  0  0  0  0  0  0  0  0  0  0
    5.7678    0.4018    0.0000 N   0  0  0  0  0  0  0  0  0  0  0  0
    4.7678    0.4052    0.0000 C   0  0  0  0  0  0  0  0  0  0  0  0
    4.2708    1.2728    0.0000 C   0  0  0  0  0  0  0  0  0  0  0  0
    3.2708    1.2762    0.0000 C   0  0  0  0  0  0  0  0  0  0  0  0
    2.7678    0.4120    0.0000 C   0  0  0  0  0  0  0  0  0  0  0  0
    1.7678    0.4154    0.0000 Cl  0  0  0  0  0  0  0  0  0  0  0  0
    3.2648   -0.4556    0.0000 C   0  0  0  0  0  0  0  0  0  0  0  0
    4.2648   -0.4590    0.0000 C   0  0  0  0  0  0  0  0  0  0  0  0
    2.7620   -1.3200    0.0000 C   0  0  0  0  0  0  0  0  0  0  0  0
    3.6264   -1.8228    0.0000 F   0  0  0  0  0  0  0  0  0  0  0  0
    2.7588   -2.3200    0.0000 F   0  0  0  0  0  0  0  0  0  0  0  0
    1.7620   -1.3168    0.0000 F   0  0  0  0  0  0  0  0  0  0  0  0
    7.2708    1.2624    0.0000 N   0  0  0  0  0  0  0  0  0  0  0  0
    9.3590    2.9270    0.0000 C   0  0  0  0  0  0  0  0  0  0  0  0
   10.3056    2.6158    0.0000 N   0  0  0  0  0  0  0  0  0  0  0  0
   10.3020    1.6194    0.0000 N   0  0  0  0  0  0  0  0  0  0  0  0
   11.0402    0.9500    0.0000 N   0  0  0  0  0  0  0  0  0  0  0  0
    9.0546    3.8758    0.0000 C   0  0  0  0  0  0  0  0  0  0  0  0
    8.0772    4.0874    0.0000 C   0  0  0  0  0  0  0  0  0  0  0  0
    7.7718    5.0396    0.0000 C   0  0  0  0  0  0  0  0  0  0  0  0
    8.4436    5.7802    0.0000 C   0  0  0  0  0  0  0  0  0  0  0  0
    8.1382    6.7324    0.0000 F   0  0  0  0  0  0  0  0  0  0  0  0
    9.4210    5.5686    0.0000 C   0  0  0  0  0  0  0  0  0  0  0  0
    9.7264    4.6164    0.0000 C   0  0  0  0  0  0  0  0  0  0  0  0
  1  2  1  0
  2  3  1  0
  3  4  2  0
  4  5  1  0
  5  6  2  0
  7  8  2  0
  8  9  1  0
  9 10  2  0
 10 11  1  0
 12 13  1  0
 13 14  2  0
 14 15  1  0
 15 16  2  0
 16 17  1  0
 16 18  1  0
 19 13  1  0
 18 19  2  0
 18 20  1  0
 20 21  1  0
 20 22  1  0
 20 23  1  0
 11 12  1  0
 24  7  1  0
 11 24  2  0
  6  7  1  0
  6 25  1  0
 27  5  1  0
 26 27  1  0
 28  2  2  0
 27 28  1  0
 25 26  2  0
 25 29  1  0
 29 30  2  0
 30 31  1  0
 31 32  2  0
 32 33  1  0
 32 34  1  0
 35 29  1  0
 34 35  2  0
M  END
>  <compound_chembl_id>  (4) 
CHEMBL361038

>  <assay_id>  (4) 
302524

>  <doc_id>  (4) 
21080

>  <description>  (4) 
Binding affinity for human cyclin-dependent kinase 2

>  <assay_organism>  (4) 
Homo sapiens

>  <assay_chembl_id>  (4) 
CHEMBL827377

>  <aidx>  (4) 
CLD0

>  <pref_name>  (4) 
Cyclin-dependent kinase 2

>  <activity_id>  (4) 
1439063

>  <molregno>  (4) 
305674

>  <standard_relation>  (4) 
>

>  <standard_value>  (4) 
19950.

>  <standard_units>  (4) 
nM

>  <standard_flag>  (4) 
1

>  <standard_type>  (4) 
Ki

>  <src_id (#1)>  (4) 
1

>  <type>  (4) 
Ki

>  <relation>  (4) 
>

>  <value>  (4) 
19.95

>  <units>  (4) 
uM

>  <standard_inchi_key>  (4) 
VUGNSTAXWJUVEZ-UHFFFAOYSA-N

>  <canonical_smiles>  (4) 
Cc1ccc2c(c3ccnc(Nc4ccc(Cl)c(c4)C(F)(F)F)n3)c(nn2n1)c5ccc(F)cc5

$$$$
CHEMBL362296
     RDKit          2D

 25 29  0  0  0  0  0  0  0  0999 V2000
    8.3140    4.5476    0.0000 C   0  0  0  0  0  0  0  0  0  0  0  0
    9.2662    4.8532    0.0000 C   0  0  0  0  0  0  0  0  0  0  0  0
    9.0546    3.8758    0.0000 C   0  0  0  0  0  0  0  0  0  0  0  0
    9.3590    2.9270    0.0000 C   0  0  0  0  0  0  0  0  0  0  0  0
   10.3056    2.6158    0.0000 N   0  0  0  0  0  0  0  0  0  0  0  0
   10.3020    1.6194    0.0000 N   0  0  0  0  0  0  0  0  0  0  0  0
   11.0402    0.9500    0.0000 N   0  0  0  0  0  0  0  0  0  0  0  0
   10.8294   -0.0240    0.0000 C   0  0  0  0  0  0  0  0  0  0  0  0
    9.8806   -0.3284    0.0000 C   0  0  0  0  0  0  0  0  0  0  0  0
    9.1426    0.3410    0.0000 C   0  0  0  0  0  0  0  0  0  0  0  0
    9.3532    1.3148    0.0000 C   0  0  0  0  0  0  0  0  0  0  0  0
    8.7704    2.1230    0.0000 C   0  0  0  0  0  0  0  0  0  0  0  0
    7.7740    2.1266    0.0000 C   0  0  0  0  0  0  0  0  0  0  0  0
    7.2772    2.9944    0.0000 C   0  0  0  0  0  0  0  0  0  0  0  0
    6.2772    2.9980    0.0000 C   0  0  0  0  0  0  0  0  0  0  0  0
    5.7740    2.1338    0.0000 N   0  0  0  0  0  0  0  0  0  0  0  0
    6.2708    1.2660    0.0000 C   0  0  0  0  0  0  0  0  0  0  0  0
    5.7678    0.4018    0.0000 N   0  0  0  0  0  0  0  0  0  0  0  0
    4.7678    0.4052    0.0000 C   0  0  0  0  0  0  0  0  0  0  0  0
    4.2708    1.2728    0.0000 C   0  0  0  0  0  0  0  0  0  0  0  0
    3.2708    1.2762    0.0000 C   0  0  0  0  0  0  0  0  0  0  0  0
    2.7678    0.4120    0.0000 C   0  0  0  0  0  0  0  0  0  0  0  0
    3.2648   -0.4556    0.0000 C   0  0  0  0  0  0  0  0  0  0  0  0
    4.2648   -0.4590    0.0000 C   0  0  0  0  0  0  0  0  0  0  0  0
    7.2708    1.2624    0.0000 N   0  0  0  0  0  0  0  0  0  0  0  0
  1  2  1  0
  3  1  1  0
  2  3  1  0
  3  4  1  0
  4  5  2  0
  5  6  1  0
  6  7  1  0
  7  8  2  0
  8  9  1  0
  9 10  2  0
 11  6  1  0
 10 11  1  0
 12  4  1  0
 11 12  2  0
 12 13  1  0
 13 14  2  0
 14 15  1  0
 15 16  2  0
 16 17  1  0
 18 19  1  0
 19 20  2  0
 20 21  1  0
 21 22  2  0
 22 23  1  0
 24 19  1  0
 23 24  2  0
 17 18  1  0
 25 13  1  0
 17 25  2  0
M  END
>  <compound_chembl_id>  (5) 
CHEMBL362296

>  <assay_id>  (5) 
302524

>  <doc_id>  (5) 
21080

>  <description>  (5) 
Binding affinity for human cyclin-dependent kinase 2

>  <assay_organism>  (5) 
Homo sapiens

>  <assay_chembl_id>  (5) 
CHEMBL827377

>  <aidx>  (5) 
CLD0

>  <pref_name>  (5) 
Cyclin-dependent kinase 2

>  <activity_id>  (5) 
1439065

>  <molregno>  (5) 
305687

>  <standard_relation>  (5) 
=

>  <standard_value>  (5) 
3980.

>  <standard_units>  (5) 
nM

>  <standard_flag>  (5) 
1

>  <standard_type>  (5) 
Ki

>  <pchembl_value>  (5) 
5.4

>  <src_id (#1)>  (5) 
1

>  <type>  (5) 
Ki

>  <relation>  (5) 
=

>  <value>  (5) 
3.98

>  <units>  (5) 
uM

>  <standard_inchi_key>  (5) 
BWBMBCPGRIOUNV-UHFFFAOYSA-N

>  <canonical_smiles>  (5) 
C1CC1c2nn3ncccc3c2c4ccnc(Nc5ccccc5)n4

$$$$
CHEMBL185516
     RDKit          2D

 27 31  0  0  0  0  0  0  0  0999 V2000
    1.7678    0.4154    0.0000 F   0  0  0  0  0  0  0  0  0  0  0  0
    2.7678    0.4120    0.0000 C   0  0  0  0  0  0  0  0  0  0  0  0
    3.2708    1.2762    0.0000 C   0  0  0  0  0  0  0  0  0  0  0  0
    4.2708    1.2728    0.0000 C   0  0  0  0  0  0  0  0  0  0  0  0
    4.7678    0.4052    0.0000 C   0  0  0  0  0  0  0  0  0  0  0  0
    5.7678    0.4018    0.0000 N   0  0  0  0  0  0  0  0  0  0  0  0
    6.2708    1.2660    0.0000 C   0  0  0  0  0  0  0  0  0  0  0  0
    5.7740    2.1338    0.0000 N   0  0  0  0  0  0  0  0  0  0  0  0
    6.2772    2.9980    0.0000 C   0  0  0  0  0  0  0  0  0  0  0  0
    7.2772    2.9944    0.0000 C   0  0  0  0  0  0  0  0  0  0  0  0
    7.7740    2.1266    0.0000 C   0  0  0  0  0  0  0  0  0  0  0  0
    7.2708    1.2624    0.0000 N   0  0  0  0  0  0  0  0  0  0  0  0
    8.7704    2.1230    0.0000 C   0  0  0  0  0  0  0  0  0  0  0  0
    9.3590    2.9270    0.0000 C   0  0  0  0  0  0  0  0  0  0  0  0
   10.3056    2.6158    0.0000 N   0  0  0  0  0  0  0  0  0  0  0  0
   10.3020    1.6194    0.0000 N   0  0  0  0  0  0  0  0  0  0  0  0
   11.0402    0.9500    0.0000 N   0  0  0  0  0  0  0  0  0  0  0  0
   10.8294   -0.0240    0.0000 C   0  0  0  0  0  0  0  0  0  0  0  0
    9.8806   -0.3284    0.0000 C   0  0  0  0  0  0  0  0  0  0  0  0
    9.1426    0.3410    0.0000 C   0  0  0  0  0  0  0  0  0  0  0  0
    9.3532    1.3148    0.0000 C   0  0  0  0  0  0  0  0  0  0  0  0
    9.0546    3.8758    0.0000 C   0  0  0  0  0  0  0  0  0  0  0  0
    8.3140    4.5476    0.0000 C   0  0  0  0  0  0  0  0  0  0  0  0
    9.2662    4.8532    0.0000 C   0  0  0  0  0  0  0  0  0  0  0  0
    4.2648   -0.4590    0.0000 C   0  0  0  0  0  0  0  0  0  0  0  0
    3.2648   -0.4556    0.0000 C   0  0  0  0  0  0  0  0  0  0  0  0
    2.7620   -1.3200    0.0000 F   0  0  0  0  0  0  0  0  0  0  0  0
  1  2  1  0
  2  3  2  0
  3  4  1  0
  4  5  2  0
  6  7  1  0
  7  8  2  0
  8  9  1  0
  9 10  2  0
 10 11  1  0
 12  7  1  0
 11 12  2  0
 11 13  1  0
 13 14  1  0
 15 16  1  0
 16 17  1  0
 17 18  2  0
 18 19  1  0
 19 20  2  0
 21 13  2  0
 21 16  1  0
 20 21  1  0
 14 15  2  0
 14 22  1  0
 22 23  1  0
 24 22  1  0
 23 24  1  0
  5  6  1  0
  5 25  1  0
 26  2  1  0
 25 26  2  0
 26 27  1  0
M  END
>  <compound_chembl_id>  (6) 
CHEMBL185516

>  <assay_id>  (6) 
302524

>  <doc_id>  (6) 
21080

>  <description>  (6) 
Binding affinity for human cyclin-dependent kinase 2

>  <assay_organism>  (6) 
Homo sapiens

>  <assay_chembl_id>  (6) 
CHEMBL827377

>  <aidx>  (6) 
CLD0

>  <pref_name>  (6) 
Cyclin-dependent kinase 2

>  <activity_id>  (6) 
1439067

>  <molregno>  (6) 
305693

>  <standard_relation>  (6) 
>

>  <standard_value>  (6) 
19950.

>  <standard_units>  (6) 
nM

>  <standard_flag>  (6) 
1

>  <standard_type>  (6) 
Ki

>  <src_id (#1)>  (6) 
1

>  <type>  (6) 
Ki

>  <relation>  (6) 
>

>  <value>  (6) 
19.95

>  <units>  (6) 
uM

>  <standard_inchi_key>  (6) 
JDLIQIUDELHLFR-UHFFFAOYSA-N

>  <canonical_smiles>  (6) 
Fc1ccc(Nc2nccc(n2)c3c(nn4ncccc34)C5CC5)cc1F

$$$$
CHEMBL273870
     RDKit          2D

 28 32  0  0  0  0  0  0  0  0999 V2000
    8.4436    5.7802    0.0000 C   0  0  0  0  0  0  0  0  0  0  0  0
    7.7718    5.0396    0.0000 C   0  0  0  0  0  0  0  0  0  0  0  0
    8.0772    4.0874    0.0000 C   0  0  0  0  0  0  0  0  0  0  0  0
    9.0546    3.8758    0.0000 C   0  0  0  0  0  0  0  0  0  0  0  0
    9.7264    4.6164    0.0000 C   0  0  0  0  0  0  0  0  0  0  0  0
    9.4210    5.5686    0.0000 C   0  0  0  0  0  0  0  0  0  0  0  0
    9.3590    2.9270    0.0000 C   0  0  0  0  0  0  0  0  0  0  0  0
   10.3056    2.6158    0.0000 N   0  0  0  0  0  0  0  0  0  0  0  0
   10.3020    1.6194    0.0000 N   0  0  0  0  0  0  0  0  0  0  0  0
   11.0402    0.9500    0.0000 N   0  0  0  0  0  0  0  0  0  0  0  0
   10.8294   -0.0240    0.0000 C   0  0  0  0  0  0  0  0  0  0  0  0
    9.8806   -0.3284    0.0000 C   0  0  0  0  0  0  0  0  0  0  0  0
    9.1426    0.3410    0.0000 C   0  0  0  0  0  0  0  0  0  0  0  0
    9.3532    1.3148    0.0000 C   0  0  0  0  0  0  0  0  0  0  0  0
    8.7704    2.1230    0.0000 C   0  0  0  0  0  0  0  0  0  0  0  0
    7.7740    2.1266    0.0000 C   0  0  0  0  0  0  0  0  0  0  0  0
    7.2772    2.9944    0.0000 C   0  0  0  0  0  0  0  0  0  0  0  0
    6.2772    2.9980    0.0000 C   0  0  0  0  0  0  0  0  0  0  0  0
    5.7740    2.1338    0.0000 N   0  0  0  0  0  0  0  0  0  0  0  0
    6.2708    1.2660    0.0000 C   0  0  0  0  0  0  0  0  0  0  0  0
    5.7678    0.4018    0.0000 N   0  0  0  0  0  0  0  0  0  0  0  0
    4.7678    0.4052    0.0000 C   0  0  0  0  0  0  0  0  0  0  0  0
    4.2708    1.2728    0.0000 C   0  0  0  0  0  0  0  0  0  0  0  0
    3.2708    1.2762    0.0000 C   0  0  0  0  0  0  0  0  0  0  0  0
    2.7678    0.4120    0.0000 C   0  0  0  0  0  0  0  0  0  0  0  0
    3.2648   -0.4556    0.0000 C   0  0  0  0  0  0  0  0  0  0  0  0
    4.2648   -0.4590    0.0000 C   0  0  0  0  0  0  0  0  0  0  0  0
    7.2708    1.2624    0.0000 N   0  0  0  0  0  0  0  0  0  0  0  0
  1  2  1  0
  2  3  1  0
  3  4  1  0
  6  1  1  0
  5  6  1  0
  4  5  1  0
  4  7  1  0
  7  8  2  0
  8  9  1  0
  9 10  1  0
 10 11  2  0
 11 12  1  0
 12 13  2  0
 14  9  1  0
 13 14  1  0
 15  7  1  0
 14 15  2  0
 15 16  1  0
 16 17  2  0
 17 18  1  0
 18 19  2  0
 19 20  1  0
 21 22  1  0
 22 23  2  0
 23 24  1  0
 24 25  2  0
 25 26  1  0
 27 22  1  0
 26 27  2  0
 20 21  1  0
 28 16  1  0
 20 28  2  0
M  END
>  <compound_chembl_id>  (7) 
CHEMBL273870

>  <assay_id>  (7) 
302524

>  <doc_id>  (7) 
21080

>  <description>  (7) 
Binding affinity for human cyclin-dependent kinase 2

>  <assay_organism>  (7) 
Homo sapiens

>  <assay_chembl_id>  (7) 
CHEMBL827377

>  <aidx>  (7) 
CLD0

>  <pref_name>  (7) 
Cyclin-dependent kinase 2

>  <activity_id>  (7) 
1439069

>  <molregno>  (7) 
305763

>  <standard_relation>  (7) 
>

>  <standard_value>  (7) 
19950.

>  <standard_units>  (7) 
nM

>  <standard_flag>  (7) 
1

>  <standard_type>  (7) 
Ki

>  <src_id (#1)>  (7) 
1

>  <type>  (7) 
Ki

>  <relation>  (7) 
>

>  <value>  (7) 
19.95

>  <units>  (7) 
uM

>  <standard_inchi_key>  (7) 
DDFQLGDFPMLUMW-UHFFFAOYSA-N

>  <canonical_smiles>  (7) 
C1CCC(CC1)c2nn3ncccc3c2c4ccnc(Nc5ccccc5)n4

$$$$
CHEMBL185044
     RDKit          2D

 30 34  0  0  0  0  0  0  0  0999 V2000
    1.7678    0.4154    0.0000 F   0  0  0  0  0  0  0  0  0  0  0  0
    2.7678    0.4120    0.0000 C   0  0  0  0  0  0  0  0  0  0  0  0
    3.2708    1.2762    0.0000 C   0  0  0  0  0  0  0  0  0  0  0  0
    4.2708    1.2728    0.0000 C   0  0  0  0  0  0  0  0  0  0  0  0
    4.7678    0.4052    0.0000 C   0  0  0  0  0  0  0  0  0  0  0  0
    5.7678    0.4018    0.0000 N   0  0  0  0  0  0  0  0  0  0  0  0
    6.2708    1.2660    0.0000 C   0  0  0  0  0  0  0  0  0  0  0  0
    5.7740    2.1338    0.0000 N   0  0  0  0  0  0  0  0  0  0  0  0
    6.2772    2.9980    0.0000 C   0  0  0  0  0  0  0  0  0  0  0  0
    7.2772    2.9944    0.0000 C   0  0  0  0  0  0  0  0  0  0  0  0
    7.7740    2.1266    0.0000 C   0  0  0  0  0  0  0  0  0  0  0  0
    7.2708    1.2624    0.0000 N   0  0  0  0  0  0  0  0  0  0  0  0
    8.7704    2.1230    0.0000 C   0  0  0  0  0  0  0  0  0  0  0  0
    9.3590    2.9270    0.0000 C   0  0  0  0  0  0  0  0  0  0  0  0
   10.3056    2.6158    0.0000 N   0  0  0  0  0  0  0  0  0  0  0  0
   10.3020    1.6194    0.0000 N   0  0  0  0  0  0  0  0  0  0  0  0
   11.0402    0.9500    0.0000 N   0  0  0  0  0  0  0  0  0  0  0  0
   10.8294   -0.0240    0.0000 C   0  0  0  0  0  0  0  0  0  0  0  0
    9.8806   -0.3284    0.0000 C   0  0  0  0  0  0  0  0  0  0  0  0
    9.1426    0.3410    0.0000 C   0  0  0  0  0  0  0  0  0  0  0  0
    9.3532    1.3148    0.0000 C   0  0  0  0  0  0  0  0  0  0  0  0
    9.0546    3.8758    0.0000 C   0  0  0  0  0  0  0  0  0  0  0  0
    8.0772    4.0874    0.0000 C   0  0  0  0  0  0  0  0  0  0  0  0
    7.7718    5.0396    0.0000 C   0  0  0  0  0  0  0  0  0  0  0  0
    8.4436    5.7802    0.0000 C   0  0  0  0  0  0  0  0  0  0  0  0
    9.4210    5.5686    0.0000 C   0  0  0  0  0  0  0  0  0  0  0  0
    9.7264    4.6164    0.0000 C   0  0  0  0  0  0  0  0  0  0  0  0
    4.2648   -0.4590    0.0000 C   0  0  0  0  0  0  0  0  0  0  0  0
    3.2648   -0.4556    0.0000 C   0  0  0  0  0  0  0  0  0  0  0  0
    2.7620   -1.3200    0.0000 F   0  0  0  0  0  0  0  0  0  0  0  0
  1  2  1  0
  2  3  2  0
  3  4  1  0
  4  5  2  0
  6  7  1  0
  7  8  2  0
  8  9  1  0
  9 10  2  0
 10 11  1  0
 12  7  1  0
 11 12  2  0
 11 13  1  0
 13 14  1  0
 15 16  1  0
 16 17  1  0
 17 18  2  0
 18 19  1  0
 19 20  2  0
 21 13  2  0
 21 16  1  0
 20 21  1  0
 14 15  2  0
 14 22  1  0
 22 23  1  0
 23 24  1  0
 24 25  1  0
 25 26  1  0
 27 22  1  0
 26 27  1  0
  5  6  1  0
  5 28  1  0
 29  2  1  0
 28 29  2  0
 29 30  1  0
M  END
>  <compound_chembl_id>  (8) 
CHEMBL185044

>  <assay_id>  (8) 
302524

>  <doc_id>  (8) 
21080

>  <description>  (8) 
Binding affinity for human cyclin-dependent kinase 2

>  <assay_organism>  (8) 
Homo sapiens

>  <assay_chembl_id>  (8) 
CHEMBL827377

>  <aidx>  (8) 
CLD0

>  <pref_name>  (8) 
Cyclin-dependent kinase 2

>  <activity_id>  (8) 
1439071

>  <molregno>  (8) 
305783

>  <standard_relation>  (8) 
>

>  <standard_value>  (8) 
19950.

>  <standard_units>  (8) 
nM

>  <standard_flag>  (8) 
1

>  <standard_type>  (8) 
Ki

>  <src_id (#1)>  (8) 
1

>  <type>  (8) 
Ki

>  <relation>  (8) 
>

>  <value>  (8) 
19.95

>  <units>  (8) 
uM

>  <standard_inchi_key>  (8) 
ZFSROZCISCIVQI-UHFFFAOYSA-N

>  <canonical_smiles>  (8) 
Fc1ccc(Nc2nccc(n2)c3c(nn4ncccc34)C5CCCCC5)cc1F

$$$$
CHEMBL180593
     RDKit          2D

 29 32  0  0  0  0  0  0  0  0999 V2000
   10.7298   -4.6030    0.0000 C   0  0  0  0  0  0  0  0  0  0  0  0
   10.9408   -3.6260    0.0000 O   0  0  0  0  0  0  0  0  0  0  0  0
   10.2002   -2.9553    0.0000 C   0  0  0  0  0  0  0  0  0  0  0  0
   10.4111   -1.9791    0.0000 C   0  0  0  0  0  0  0  0  0  0  0  0
    9.6708   -1.3091    0.0000 O   0  0  0  0  0  0  0  0  0  0  0  0
    9.8822   -0.3325    0.0000 C   0  0  0  0  0  0  0  0  0  0  0  0
   10.8336   -0.0294    0.0000 C   0  0  0  0  0  0  0  0  0  0  0  0
   11.0456    0.9482    0.0000 N   0  0  0  0  0  0  0  0  0  0  0  0
   10.3048    1.6189    0.0000 N   0  0  0  0  0  0  0  0  0  0  0  0
   10.3087    2.6195    0.0000 N   0  0  0  0  0  0  0  0  0  0  0  0
    9.3593    2.9304    0.0000 C   0  0  0  0  0  0  0  0  0  0  0  0
    8.7675    2.1244    0.0000 C   0  0  0  0  0  0  0  0  0  0  0  0
    7.7738    2.1267    0.0000 C   0  0  0  0  0  0  0  0  0  0  0  0
    7.2771    2.9942    0.0000 C   0  0  0  0  0  0  0  0  0  0  0  0
    6.2770    2.9983    0.0000 C   0  0  0  0  0  0  0  0  0  0  0  0
    5.7741    2.1337    0.0000 N   0  0  0  0  0  0  0  0  0  0  0  0
    6.2708    1.2662    0.0000 C   0  0  0  0  0  0  0  0  0  0  0  0
    5.7684    0.4015    0.0000 N   0  0  0  0  0  0  0  0  0  0  0  0
    4.7674    0.4053    0.0000 C   0  0  0  0  0  0  0  0  0  0  0  0
    4.2709    1.2731    0.0000 C   0  0  0  0  0  0  0  0  0  0  0  0
    3.2703    1.2763    0.0000 C   0  0  0  0  0  0  0  0  0  0  0  0
    2.7682    0.4118    0.0000 C   0  0  0  0  0  0  0  0  0  0  0  0
    3.2647   -0.4559    0.0000 C   0  0  0  0  0  0  0  0  0  0  0  0
    2.7633   -1.3202    0.0000 O   0  0  0  0  0  0  0  0  0  0  0  0
    1.7632   -1.3173    0.0000 C   0  0  0  0  0  0  0  0  0  0  0  0
    4.2653   -0.4592    0.0000 C   0  0  0  0  0  0  0  0  0  0  0  0
    7.2710    1.2621    0.0000 N   0  0  0  0  0  0  0  0  0  0  0  0
    9.3525    1.3144    0.0000 C   0  0  0  0  0  0  0  0  0  0  0  0
    9.1407    0.3365    0.0000 C   0  0  0  0  0  0  0  0  0  0  0  0
  1  2  1  0
  2  3  1  0
  3  4  1  0
  4  5  1  0
  5  6  1  0
  6  7  1  0
  7  8  2  0
  8  9  1  0
  9 10  1  0
 10 11  2  0
 11 12  1  0
 13 14  2  0
 14 15  1  0
 15 16  2  0
 16 17  1  0
 18 19  1  0
 19 20  2  0
 20 21  1  0
 21 22  2  0
 22 23  1  0
 24 25  1  0
 23 24  1  0
 26 19  1  0
 23 26  2  0
 17 18  1  0
 27 13  1  0
 17 27  2  0
 12 13  1  0
 28  9  1  0
 12 28  2  0
 29  6  2  0
 28 29  1  0
M  END
>  <compound_chembl_id>  (9) 
CHEMBL180593

>  <assay_id>  (9) 
302524

>  <doc_id>  (9) 
21080

>  <description>  (9) 
Binding affinity for human cyclin-dependent kinase 2

>  <assay_organism>  (9) 
Homo sapiens

>  <assay_chembl_id>  (9) 
CHEMBL827377

>  <aidx>  (9) 
CLD0

>  <pref_name>  (9) 
Cyclin-dependent kinase 2

>  <activity_id>  (9) 
1439073

>  <molregno>  (9) 
305804

>  <standard_relation>  (9) 
>

>  <standard_value>  (9) 
19950.

>  <standard_units>  (9) 
nM

>  <standard_flag>  (9) 
1

>  <standard_type>  (9) 
Ki

>  <src_id (#1)>  (9) 
1

>  <type>  (9) 
Ki

>  <relation>  (9) 
>

>  <value>  (9) 
19.95

>  <units>  (9) 
uM

>  <standard_inchi_key>  (9) 
IEKJNVAHFVQHKN-UHFFFAOYSA-N

>  <canonical_smiles>  (9) 
COCCOc1cnn2ncc(c3ccnc(Nc4cccc(OC)c4)n3)c2c1

$$$$
CHEMBL364197
     RDKit          2D

 31 35  0  0  0  0  0  0  0  0999 V2000
   11.5676   -0.6934    0.0000 C   0  0  0  0  0  0  0  0  0  0  0  0
   10.8294   -0.0240    0.0000 C   0  0  0  0  0  0  0  0  0  0  0  0
    9.8806   -0.3284    0.0000 C   0  0  0  0  0  0  0  0  0  0  0  0
    9.1426    0.3410    0.0000 C   0  0  0  0  0  0  0  0  0  0  0  0
    9.3532    1.3148    0.0000 C   0  0  0  0  0  0  0  0  0  0  0  0
    8.7704    2.1230    0.0000 C   0  0  0  0  0  0  0  0  0  0  0  0
    7.7740    2.1266    0.0000 C   0  0  0  0  0  0  0  0  0  0  0  0
    7.2772    2.9944    0.0000 C   0  0  0  0  0  0  0  0  0  0  0  0
    6.2772    2.9980    0.0000 C   0  0  0  0  0  0  0  0  0  0  0  0
    5.7740    2.1338    0.0000 N   0  0  0  0  0  0  0  0  0  0  0  0
    6.2708    1.2660    0.0000 C   0  0  0  0  0  0  0  0  0  0  0  0
    5.7678    0.4018    0.0000 N   0  0  0  0  0  0  0  0  0  0  0  0
    4.7678    0.4052    0.0000 C   0  0  0  0  0  0  0  0  0  0  0  0
    4.2708    1.2728    0.0000 C   0  0  0  0  0  0  0  0  0  0  0  0
    3.2708    1.2762    0.0000 C   0  0  0  0  0  0  0  0  0  0  0  0
    2.7678    0.4120    0.0000 C   0  0  0  0  0  0  0  0  0  0  0  0
    1.7678    0.4154    0.0000 F   0  0  0  0  0  0  0  0  0  0  0  0
    3.2648   -0.4556    0.0000 C   0  0  0  0  0  0  0  0  0  0  0  0
    2.7620   -1.3200    0.0000 F   0  0  0  0  0  0  0  0  0  0  0  0
    4.2648   -0.4590    0.0000 C   0  0  0  0  0  0  0  0  0  0  0  0
    7.2708    1.2624    0.0000 N   0  0  0  0  0  0  0  0  0  0  0  0
    9.3590    2.9270    0.0000 C   0  0  0  0  0  0  0  0  0  0  0  0
   10.3056    2.6158    0.0000 N   0  0  0  0  0  0  0  0  0  0  0  0
   10.3020    1.6194    0.0000 N   0  0  0  0  0  0  0  0  0  0  0  0
   11.0402    0.9500    0.0000 N   0  0  0  0  0  0  0  0  0  0  0  0
    9.0546    3.8758    0.0000 C   0  0  0  0  0  0  0  0  0  0  0  0
    8.0772    4.0874    0.0000 C   0  0  0  0  0  0  0  0  0  0  0  0
    7.7718    5.0396    0.0000 C   0  0  0  0  0  0  0  0  0  0  0  0
    8.4436    5.7802    0.0000 C   0  0  0  0  0  0  0  0  0  0  0  0
    9.4210    5.5686    0.0000 C   0  0  0  0  0  0  0  0  0  0  0  0
    9.7264    4.6164    0.0000 C   0  0  0  0  0  0  0  0  0  0  0  0
  1  2  1  0
  2  3  1  0
  3  4  2  0
  4  5  1  0
  5  6  2  0
  7  8  2  0
  8  9  1  0
  9 10  2  0
 10 11  1  0
 12 13  1  0
 13 14  2  0
 14 15  1  0
 15 16  2  0
 16 17  1  0
 16 18  1  0
 18 19  1  0
 20 13  1  0
 18 20  2  0
 11 12  1  0
 21  7  1  0
 11 21  2  0
  6  7  1  0
  6 22  1  0
 24  5  1  0
 23 24  1  0
 25  2  2  0
 24 25  1  0
 22 23  2  0
 22 26  1  0
 26 27  2  0
 27 28  1  0
 28 29  2  0
 29 30  1  0
 31 26  1  0
 30 31  2  0
M  END
>  <compound_chembl_id>  (10) 
CHEMBL364197

>  <assay_id>  (10) 
302524

>  <doc_id>  (10) 
21080

>  <description>  (10) 
Binding affinity for human cyclin-dependent kinase 2

>  <assay_organism>  (10) 
Homo sapiens

>  <assay_chembl_id>  (10) 
CHEMBL827377

>  <aidx>  (10) 
CLD0

>  <pref_name>  (10) 
Cyclin-dependent kinase 2

>  <activity_id>  (10) 
1465916

>  <molregno>  (10) 
312679

>  <standard_relation>  (10) 
>

>  <standard_value>  (10) 
19950.

>  <standard_units>  (10) 
nM

>  <standard_flag>  (10) 
1

>  <standard_type>  (10) 
Ki

>  <src_id (#1)>  (10) 
1

>  <type>  (10) 
Ki

>  <relation>  (10) 
>

>  <value>  (10) 
19.95

>  <units>  (10) 
uM

>  <standard_inchi_key>  (10) 
OOFICCWOSHSLFS-UHFFFAOYSA-N

>  <canonical_smiles>  (10) 
Cc1ccc2c(c3ccnc(Nc4ccc(F)c(F)c4)n3)c(nn2n1)c5ccccc5

$$$$
CHEMBL186010
     RDKit          2D

 34 38  0  0  0  0  0  0  0  0999 V2000
   11.5676   -0.6934    0.0000 C   0  0  0  0  0  0  0  0  0  0  0  0
   10.8294   -0.0240    0.0000 C   0  0  0  0  0  0  0  0  0  0  0  0
    9.8806   -0.3284    0.0000 C   0  0  0  0  0  0  0  0  0  0  0  0
    9.1426    0.3410    0.0000 C   0  0  0  0  0  0  0  0  0  0  0  0
    9.3532    1.3148    0.0000 C   0  0  0  0  0  0  0  0  0  0  0  0
    8.7704    2.1230    0.0000 C   0  0  0  0  0  0  0  0  0  0  0  0
    7.7740    2.1266    0.0000 C   0  0  0  0  0  0  0  0  0  0  0  0
    7.2772    2.9944    0.0000 C   0  0  0  0  0  0  0  0  0  0  0  0
    6.2772    2.9980    0.0000 C   0  0  0  0  0  0  0  0  0  0  0  0
    5.7740    2.1338    0.0000 N   0  0  0  0  0  0  0  0  0  0  0  0
    6.2708    1.2660    0.0000 C   0  0  0  0  0  0  0  0  0  0  0  0
    5.7678    0.4018    0.0000 N   0  0  0  0  0  0  0  0  0  0  0  0
    4.7678    0.4052    0.0000 C   0  0  0  0  0  0  0  0  0  0  0  0
    4.2708    1.2728    0.0000 C   0  0  0  0  0  0  0  0  0  0  0  0
    3.2708    1.2762    0.0000 C   0  0  0  0  0  0  0  0  0  0  0  0
    2.7678    0.4120    0.0000 C   0  0  0  0  0  0  0  0  0  0  0  0
    1.7678    0.4154    0.0000 Cl  0  0  0  0  0  0  0  0  0  0  0  0
    3.2648   -0.4556    0.0000 C   0  0  0  0  0  0  0  0  0  0  0  0
    4.2648   -0.4590    0.0000 C   0  0  0  0  0  0  0  0  0  0  0  0
    2.7620   -1.3200    0.0000 C   0  0  0  0  0  0  0  0  0  0  0  0
    3.6264   -1.8228    0.0000 F   0  0  0  0  0  0  0  0  0  0  0  0
    2.7588   -2.3200    0.0000 F   0  0  0  0  0  0  0  0  0  0  0  0
    1.7620   -1.3168    0.0000 F   0  0  0  0  0  0  0  0  0  0  0  0
    7.2708    1.2624    0.0000 N   0  0  0  0  0  0  0  0  0  0  0  0
    9.3590    2.9270    0.0000 C   0  0  0  0  0  0  0  0  0  0  0  0
   10.3056    2.6158    0.0000 N   0  0  0  0  0  0  0  0  0  0  0  0
   10.3020    1.6194    0.0000 N   0  0  0  0  0  0  0  0  0  0  0  0
   11.0402    0.9500    0.0000 N   0  0  0  0  0  0  0  0  0  0  0  0
    9.0546    3.8758    0.0000 C   0  0  0  0  0  0  0  0  0  0  0  0
    8.0772    4.0874    0.0000 C   0  0  0  0  0  0  0  0  0  0  0  0
    7.7718    5.0396    0.0000 C   0  0  0  0  0  0  0  0  0  0  0  0
    8.4436    5.7802    0.0000 C   0  0  0  0  0  0  0  0  0  0  0  0
    9.4210    5.5686    0.0000 C   0  0  0  0  0  0  0  0  0  0  0  0
    9.7264    4.6164    0.0000 C   0  0  0  0  0  0  0  0  0  0  0  0
  1  2  1  0
  2  3  1  0
  3  4  2  0
  4  5  1  0
  5  6  2  0
  7  8  2  0
  8  9  1  0
  9 10  2  0
 10 11  1  0
 12 13  1  0
 13 14  2  0
 14 15  1  0
 15 16  2  0
 16 17  1  0
 16 18  1  0
 19 13  1  0
 18 19  2  0
 18 20  1  0
 20 21  1  0
 20 22  1  0
 20 23  1  0
 11 12  1  0
 24  7  1  0
 11 24  2  0
  6  7  1  0
  6 25  1  0
 27  5  1  0
 26 27  1  0
 28  2  2  0
 27 28  1  0
 25 26  2  0
 25 29  1  0
 29 30  2  0
 30 31  1  0
 31 32  2  0
 32 33  1  0
 34 29  1  0
 33 34  2  0
M  END
>  <compound_chembl_id>  (11) 
CHEMBL186010

>  <assay_id>  (11) 
302524

>  <doc_id>  (11) 
21080

>  <description>  (11) 
Binding affinity for human cyclin-dependent kinase 2

>  <assay_organism>  (11) 
Homo sapiens

>  <assay_chembl_id>  (11) 
CHEMBL827377

>  <aidx>  (11) 
CLD0

>  <pref_name>  (11) 
Cyclin-dependent kinase 2

>  <activity_id>  (11) 
1465920

>  <molregno>  (11) 
312584

>  <standard_relation>  (11) 
>

>  <standard_value>  (11) 
19950.

>  <standard_units>  (11) 
nM

>  <standard_flag>  (11) 
1

>  <standard_type>  (11) 
Ki

>  <src_id (#1)>  (11) 
1

>  <type>  (11) 
Ki

>  <relation>  (11) 
>

>  <value>  (11) 
19.95

>  <units>  (11) 
uM

>  <standard_inchi_key>  (11) 
UBHNWOSNJZLRHM-UHFFFAOYSA-N

>  <canonical_smiles>  (11) 
Cc1ccc2c(c3ccnc(Nc4ccc(Cl)c(c4)C(F)(F)F)n3)c(nn2n1)c5ccccc5

$$$$
CHEMBL361723
     RDKit          2D

 33 38  0  0  0  0  0  0  0  0999 V2000
   11.5676   -0.6934    0.0000 C   0  0  0  0  0  0  0  0  0  0  0  0
   10.8294   -0.0240    0.0000 C   0  0  0  0  0  0  0  0  0  0  0  0
    9.8806   -0.3284    0.0000 C   0  0  0  0  0  0  0  0  0  0  0  0
    9.1426    0.3410    0.0000 C   0  0  0  0  0  0  0  0  0  0  0  0
    9.3532    1.3148    0.0000 C   0  0  0  0  0  0  0  0  0  0  0  0
    8.7704    2.1230    0.0000 C   0  0  0  0  0  0  0  0  0  0  0  0
    7.7740    2.1266    0.0000 C   0  0  0  0  0  0  0  0  0  0  0  0
    7.2772    2.9944    0.0000 C   0  0  0  0  0  0  0  0  0  0  0  0
    6.2772    2.9980    0.0000 C   0  0  0  0  0  0  0  0  0  0  0  0
    5.7740    2.1338    0.0000 N   0  0  0  0  0  0  0  0  0  0  0  0
    6.2708    1.2660    0.0000 C   0  0  0  0  0  0  0  0  0  0  0  0
    5.7678    0.4018    0.0000 N   0  0  0  0  0  0  0  0  0  0  0  0
    4.7678    0.4052    0.0000 C   0  0  0  0  0  0  0  0  0  0  0  0
    4.2708    1.2728    0.0000 C   0  0  0  0  0  0  0  0  0  0  0  0
    3.2708    1.2762    0.0000 C   0  0  0  0  0  0  0  0  0  0  0  0
    2.7678    0.4120    0.0000 C   0  0  0  0  0  0  0  0  0  0  0  0
    1.7678    0.4154    0.0000 O   0  0  0  0  0  0  0  0  0  0  0  0
    1.2648   -0.4488    0.0000 C   0  0  0  0  0  0  0  0  0  0  0  0
    1.7622   -1.3166    0.0000 C   0  0  0  0  0  0  0  0  0  0  0  0
    2.7620   -1.3200    0.0000 O   0  0  0  0  0  0  0  0  0  0  0  0
    3.2648   -0.4556    0.0000 C   0  0  0  0  0  0  0  0  0  0  0  0
    4.2648   -0.4590    0.0000 C   0  0  0  0  0  0  0  0  0  0  0  0
    7.2708    1.2624    0.0000 N   0  0  0  0  0  0  0  0  0  0  0  0
    9.3590    2.9270    0.0000 C   0  0  0  0  0  0  0  0  0  0  0  0
   10.3056    2.6158    0.0000 N   0  0  0  0  0  0  0  0  0  0  0  0
   10.3020    1.6194    0.0000 N   0  0  0  0  0  0  0  0  0  0  0  0
   11.0402    0.9500    0.0000 N   0  0  0  0  0  0  0  0  0  0  0  0
    9.0546    3.8758    0.0000 C   0  0  0  0  0  0  0  0  0  0  0  0
    8.0772    4.0874    0.0000 C   0  0  0  0  0  0  0  0  0  0  0  0
    7.7718    5.0396    0.0000 C   0  0  0  0  0  0  0  0  0  0  0  0
    8.4436    5.7802    0.0000 C   0  0  0  0  0  0  0  0  0  0  0  0
    9.4210    5.5686    0.0000 C   0  0  0  0  0  0  0  0  0  0  0  0
    9.7264    4.6164    0.0000 C   0  0  0  0  0  0  0  0  0  0  0  0
  1  2  1  0
  2  3  1  0
  3  4  2  0
  4  5  1  0
  5  6  2  0
  7  8  2  0
  8  9  1  0
  9 10  2  0
 10 11  1  0
 12 13  1  0
 13 14  2  0
 14 15  1  0
 15 16  2  0
 16 17  1  0
 17 18  1  0
 18 19  1  0
 19 20  1  0
 21 16  1  0
 20 21  1  0
 22 13  1  0
 21 22  2  0
 11 12  1  0
 23  7  1  0
 11 23  2  0
  6  7  1  0
  6 24  1  0
 26  5  1  0
 25 26  1  0
 27  2  2  0
 26 27  1  0
 24 25  2  0
 24 28  1  0
 28 29  2  0
 29 30  1  0
 30 31  2  0
 31 32  1  0
 33 28  1  0
 32 33  2  0
M  END
>  <compound_chembl_id>  (12) 
CHEMBL361723

>  <assay_id>  (12) 
302524

>  <doc_id>  (12) 
21080

>  <description>  (12) 
Binding affinity for human cyclin-dependent kinase 2

>  <assay_organism>  (12) 
Homo sapiens

>  <assay_chembl_id>  (12) 
CHEMBL827377

>  <aidx>  (12) 
CLD0

>  <pref_name>  (12) 
Cyclin-dependent kinase 2

>  <activity_id>  (12) 
1465922

>  <molregno>  (12) 
312744

>  <standard_relation>  (12) 
>

>  <standard_value>  (12) 
19950.

>  <standard_units>  (12) 
nM

>  <standard_flag>  (12) 
1

>  <standard_type>  (12) 
Ki

>  <src_id (#1)>  (12) 
1

>  <type>  (12) 
Ki

>  <relation>  (12) 
>

>  <value>  (12) 
19.95

>  <units>  (12) 
uM

>  <standard_inchi_key>  (12) 
GHVWPRGGKCMKBF-UHFFFAOYSA-N

>  <canonical_smiles>  (12) 
Cc1ccc2c(c3ccnc(Nc4ccc5OCCOc5c4)n3)c(nn2n1)c6ccccc6

$$$$
CHEMBL364539
     RDKit          2D

 33 37  0  0  0  0  0  0  0  0999 V2000
   11.5676   -0.6934    0.0000 C   0  0  0  0  0  0  0  0  0  0  0  0
   10.8294   -0.0240    0.0000 C   0  0  0  0  0  0  0  0  0  0  0  0
    9.8806   -0.3284    0.0000 C   0  0  0  0  0  0  0  0  0  0  0  0
    9.1426    0.3410    0.0000 C   0  0  0  0  0  0  0  0  0  0  0  0
    9.3532    1.3148    0.0000 C   0  0  0  0  0  0  0  0  0  0  0  0
    8.7704    2.1230    0.0000 C   0  0  0  0  0  0  0  0  0  0  0  0
    7.7740    2.1266    0.0000 C   0  0  0  0  0  0  0  0  0  0  0  0
    7.2772    2.9944    0.0000 C   0  0  0  0  0  0  0  0  0  0  0  0
    6.2772    2.9980    0.0000 C   0  0  0  0  0  0  0  0  0  0  0  0
    5.7740    2.1338    0.0000 N   0  0  0  0  0  0  0  0  0  0  0  0
    6.2708    1.2660    0.0000 C   0  0  0  0  0  0  0  0  0  0  0  0
    5.7678    0.4018    0.0000 N   0  0  0  0  0  0  0  0  0  0  0  0
    4.7678    0.4052    0.0000 C   0  0  0  0  0  0  0  0  0  0  0  0
    4.2708    1.2728    0.0000 C   0  0  0  0  0  0  0  0  0  0  0  0
    3.2708    1.2762    0.0000 C   0  0  0  0  0  0  0  0  0  0  0  0
    2.7678    0.4120    0.0000 C   0  0  0  0  0  0  0  0  0  0  0  0
    3.2648   -0.4556    0.0000 C   0  0  0  0  0  0  0  0  0  0  0  0
    4.2648   -0.4590    0.0000 C   0  0  0  0  0  0  0  0  0  0  0  0
    7.2708    1.2624    0.0000 N   0  0  0  0  0  0  0  0  0  0  0  0
    9.3590    2.9270    0.0000 C   0  0  0  0  0  0  0  0  0  0  0  0
   10.3056    2.6158    0.0000 N   0  0  0  0  0  0  0  0  0  0  0  0
   10.3020    1.6194    0.0000 N   0  0  0  0  0  0  0  0  0  0  0  0
   11.0402    0.9500    0.0000 N   0  0  0  0  0  0  0  0  0  0  0  0
    9.0546    3.8758    0.0000 C   0  0  0  0  0  0  0  0  0  0  0  0
    8.0772    4.0874    0.0000 C   0  0  0  0  0  0  0  0  0  0  0  0
    7.7718    5.0396    0.0000 C   0  0  0  0  0  0  0  0  0  0  0  0
    8.4436    5.7802    0.0000 C   0  0  0  0  0  0  0  0  0  0  0  0
    9.4210    5.5686    0.0000 C   0  0  0  0  0  0  0  0  0  0  0  0
    9.7264    4.6164    0.0000 C   0  0  0  0  0  0  0  0  0  0  0  0
   10.0928    6.3092    0.0000 C   0  0  0  0  0  0  0  0  0  0  0  0
   10.8334    5.6374    0.0000 F   0  0  0  0  0  0  0  0  0  0  0  0
   11.0450    6.6146    0.0000 F   0  0  0  0  0  0  0  0  0  0  0  0
    9.7874    7.2614    0.0000 F   0  0  0  0  0  0  0  0  0  0  0  0
  1  2  1  0
  2  3  1  0
  3  4  2  0
  4  5  1  0
  5  6  2  0
  7  8  2  0
  8  9  1  0
  9 10  2  0
 10 11  1  0
 12 13  1  0
 13 14  2  0
 14 15  1  0
 15 16  2  0
 16 17  1  0
 18 13  1  0
 17 18  2  0
 11 12  1  0
 19  7  1  0
 11 19  2  0
  6  7  1  0
  6 20  1  0
 22  5  1  0
 21 22  1  0
 23  2  2  0
 22 23  1  0
 20 21  2  0
 20 24  1  0
 24 25  2  0
 25 26  1  0
 26 27  2  0
 27 28  1  0
 29 24  1  0
 28 29  2  0
 28 30  1  0
 30 31  1  0
 30 32  1  0
 30 33  1  0
M  END
>  <compound_chembl_id>  (13) 
CHEMBL364539

>  <assay_id>  (13) 
302524

>  <doc_id>  (13) 
21080

>  <description>  (13) 
Binding affinity for human cyclin-dependent kinase 2

>  <assay_organism>  (13) 
Homo sapiens

>  <assay_chembl_id>  (13) 
CHEMBL827377

>  <aidx>  (13) 
CLD0

>  <pref_name>  (13) 
Cyclin-dependent kinase 2

>  <activity_id>  (13) 
1465924

>  <molregno>  (13) 
312637

>  <standard_relation>  (13) 
>

>  <standard_value>  (13) 
19950.

>  <standard_units>  (13) 
nM

>  <standard_flag>  (13) 
1

>  <standard_type>  (13) 
Ki

>  <src_id (#1)>  (13) 
1

>  <type>  (13) 
Ki

>  <relation>  (13) 
>

>  <value>  (13) 
19.95

>  <units>  (13) 
uM

>  <standard_inchi_key>  (13) 
PMECDIZOVNMXJD-UHFFFAOYSA-N

>  <canonical_smiles>  (13) 
Cc1ccc2c(c3ccnc(Nc4ccccc4)n3)c(nn2n1)c5cccc(c5)C(F)(F)F

$$$$
CHEMBL186195
     RDKit          2D

 35 39  0  0  0  0  0  0  0  0999 V2000
   11.5676   -0.6934    0.0000 C   0  0  0  0  0  0  0  0  0  0  0  0
   10.8294   -0.0240    0.0000 C   0  0  0  0  0  0  0  0  0  0  0  0
    9.8806   -0.3284    0.0000 C   0  0  0  0  0  0  0  0  0  0  0  0
    9.1426    0.3410    0.0000 C   0  0  0  0  0  0  0  0  0  0  0  0
    9.3532    1.3148    0.0000 C   0  0  0  0  0  0  0  0  0  0  0  0
    8.7704    2.1230    0.0000 C   0  0  0  0  0  0  0  0  0  0  0  0
    7.7740    2.1266    0.0000 C   0  0  0  0  0  0  0  0  0  0  0  0
    7.2772    2.9944    0.0000 C   0  0  0  0  0  0  0  0  0  0  0  0
    6.2772    2.9980    0.0000 C   0  0  0  0  0  0  0  0  0  0  0  0
    5.7740    2.1338    0.0000 N   0  0  0  0  0  0  0  0  0  0  0  0
    6.2708    1.2660    0.0000 C   0  0  0  0  0  0  0  0  0  0  0  0
    5.7678    0.4018    0.0000 N   0  0  0  0  0  0  0  0  0  0  0  0
    4.7678    0.4052    0.0000 C   0  0  0  0  0  0  0  0  0  0  0  0
    4.2708    1.2728    0.0000 C   0  0  0  0  0  0  0  0  0  0  0  0
    3.2708    1.2762    0.0000 C   0  0  0  0  0  0  0  0  0  0  0  0
    2.7678    0.4120    0.0000 C   0  0  0  0  0  0  0  0  0  0  0  0
    1.7678    0.4154    0.0000 F   0  0  0  0  0  0  0  0  0  0  0  0
    3.2648   -0.4556    0.0000 C   0  0  0  0  0  0  0  0  0  0  0  0
    2.7620   -1.3200    0.0000 F   0  0  0  0  0  0  0  0  0  0  0  0
    4.2648   -0.4590    0.0000 C   0  0  0  0  0  0  0  0  0  0  0  0
    7.2708    1.2624    0.0000 N   0  0  0  0  0  0  0  0  0  0  0  0
    9.3590    2.9270    0.0000 C   0  0  0  0  0  0  0  0  0  0  0  0
   10.3056    2.6158    0.0000 N   0  0  0  0  0  0  0  0  0  0  0  0
   10.3020    1.6194    0.0000 N   0  0  0  0  0  0  0  0  0  0  0  0
   11.0402    0.9500    0.0000 N   0  0  0  0  0  0  0  0  0  0  0  0
    9.0546    3.8758    0.0000 C   0  0  0  0  0  0  0  0  0  0  0  0
    8.0772    4.0874    0.0000 C   0  0  0  0  0  0  0  0  0  0  0  0
    7.7718    5.0396    0.0000 C   0  0  0  0  0  0  0  0  0  0  0  0
    8.4436    5.7802    0.0000 C   0  0  0  0  0  0  0  0  0  0  0  0
    9.4210    5.5686    0.0000 C   0  0  0  0  0  0  0  0  0  0  0  0
    9.7264    4.6164    0.0000 C   0  0  0  0  0  0  0  0  0  0  0  0
   10.0928    6.3092    0.0000 C   0  0  0  0  0  0  0  0  0  0  0  0
   10.8334    5.6374    0.0000 F   0  0  0  0  0  0  0  0  0  0  0  0
   11.0450    6.6146    0.0000 F   0  0  0  0  0  0  0  0  0  0  0  0
    9.7874    7.2614    0.0000 F   0  0  0  0  0  0  0  0  0  0  0  0
  1  2  1  0
  2  3  1  0
  3  4  2  0
  4  5  1  0
  5  6  2  0
  7  8  2  0
  8  9  1  0
  9 10  2  0
 10 11  1  0
 12 13  1  0
 13 14  2  0
 14 15  1  0
 15 16  2  0
 16 17  1  0
 16 18  1  0
 18 19  1  0
 20 13  1  0
 18 20  2  0
 11 12  1  0
 21  7  1  0
 11 21  2  0
  6  7  1  0
  6 22  1  0
 24  5  1  0
 23 24  1  0
 25  2  2  0
 24 25  1  0
 22 23  2  0
 22 26  1  0
 26 27  2  0
 27 28  1  0
 28 29  2  0
 29 30  1  0
 31 26  1  0
 30 31  2  0
 30 32  1  0
 32 33  1  0
 32 34  1  0
 32 35  1  0
M  END
>  <compound_chembl_id>  (14) 
CHEMBL186195

>  <assay_id>  (14) 
302524

>  <doc_id>  (14) 
21080

>  <description>  (14) 
Binding affinity for human cyclin-dependent kinase 2

>  <assay_organism>  (14) 
Homo sapiens

>  <assay_chembl_id>  (14) 
CHEMBL827377

>  <aidx>  (14) 
CLD0

>  <pref_name>  (14) 
Cyclin-dependent kinase 2

>  <activity_id>  (14) 
1465927

>  <molregno>  (14) 
313030

>  <standard_relation>  (14) 
>

>  <standard_value>  (14) 
19950.

>  <standard_units>  (14) 
nM

>  <standard_flag>  (14) 
1

>  <standard_type>  (14) 
Ki

>  <src_id (#1)>  (14) 
1

>  <type>  (14) 
Ki

>  <relation>  (14) 
>

>  <value>  (14) 
19.95

>  <units>  (14) 
uM

>  <standard_inchi_key>  (14) 
XRNHEFWKALUYJP-UHFFFAOYSA-N

>  <canonical_smiles>  (14) 
Cc1ccc2c(c3ccnc(Nc4ccc(F)c(F)c4)n3)c(nn2n1)c5cccc(c5)C(F)(F)F

$$$$
CHEMBL184657
     RDKit          2D

 38 42  0  0  0  0  0  0  0  0999 V2000
   11.5676   -0.6934    0.0000 C   0  0  0  0  0  0  0  0  0  0  0  0
   10.8294   -0.0240    0.0000 C   0  0  0  0  0  0  0  0  0  0  0  0
    9.8806   -0.3284    0.0000 C   0  0  0  0  0  0  0  0  0  0  0  0
    9.1426    0.3410    0.0000 C   0  0  0  0  0  0  0  0  0  0  0  0
    9.3532    1.3148    0.0000 C   0  0  0  0  0  0  0  0  0  0  0  0
    8.7704    2.1230    0.0000 C   0  0  0  0  0  0  0  0  0  0  0  0
    7.7740    2.1266    0.0000 C   0  0  0  0  0  0  0  0  0  0  0  0
    7.2772    2.9944    0.0000 C   0  0  0  0  0  0  0  0  0  0  0  0
    6.2772    2.9980    0.0000 C   0  0  0  0  0  0  0  0  0  0  0  0
    5.7740    2.1338    0.0000 N   0  0  0  0  0  0  0  0  0  0  0  0
    6.2708    1.2660    0.0000 C   0  0  0  0  0  0  0  0  0  0  0  0
    5.7678    0.4018    0.0000 N   0  0  0  0  0  0  0  0  0  0  0  0
    4.7678    0.4052    0.0000 C   0  0  0  0  0  0  0  0  0  0  0  0
    4.2708    1.2728    0.0000 C   0  0  0  0  0  0  0  0  0  0  0  0
    3.2708    1.2762    0.0000 C   0  0  0  0  0  0  0  0  0  0  0  0
    2.7678    0.4120    0.0000 C   0  0  0  0  0  0  0  0  0  0  0  0
    1.7678    0.4154    0.0000 Cl  0  0  0  0  0  0  0  0  0  0  0  0
    3.2648   -0.4556    0.0000 C   0  0  0  0  0  0  0  0  0  0  0  0
    4.2648   -0.4590    0.0000 C   0  0  0  0  0  0  0  0  0  0  0  0
    2.7620   -1.3200    0.0000 C   0  0  0  0  0  0  0  0  0  0  0  0
    3.6264   -1.8228    0.0000 F   0  0  0  0  0  0  0  0  0  0  0  0
    2.7588   -2.3200    0.0000 F   0  0  0  0  0  0  0  0  0  0  0  0
    1.7620   -1.3168    0.0000 F   0  0  0  0  0  0  0  0  0  0  0  0
    7.2708    1.2624    0.0000 N   0  0  0  0  0  0  0  0  0  0  0  0
    9.3590    2.9270    0.0000 C   0  0  0  0  0  0  0  0  0  0  0  0
   10.3056    2.6158    0.0000 N   0  0  0  0  0  0  0  0  0  0  0  0
   10.3020    1.6194    0.0000 N   0  0  0  0  0  0  0  0  0  0  0  0
   11.0402    0.9500    0.0000 N   0  0  0  0  0  0  0  0  0  0  0  0
    9.0546    3.8758    0.0000 C   0  0  0  0  0  0  0  0  0  0  0  0
    8.0772    4.0874    0.0000 C   0  0  0  0  0  0  0  0  0  0  0  0
    7.7718    5.0396    0.0000 C   0  0  0  0  0  0  0  0  0  0  0  0
    8.4436    5.7802    0.0000 C   0  0  0  0  0  0  0  0  0  0  0  0
    9.4210    5.5686    0.0000 C   0  0  0  0  0  0  0  0  0  0  0  0
    9.7264    4.6164    0.0000 C   0  0  0  0  0  0  0  0  0  0  0  0
   10.0928    6.3092    0.0000 C   0  0  0  0  0  0  0  0  0  0  0  0
   10.8334    5.6374    0.0000 F   0  0  0  0  0  0  0  0  0  0  0  0
   11.0450    6.6146    0.0000 F   0  0  0  0  0  0  0  0  0  0  0  0
    9.7874    7.2614    0.0000 F   0  0  0  0  0  0  0  0  0  0  0  0
  1  2  1  0
  2  3  1  0
  3  4  2  0
  4  5  1  0
  5  6  2  0
  7  8  2  0
  8  9  1  0
  9 10  2  0
 10 11  1  0
 12 13  1  0
 13 14  2  0
 14 15  1  0
 15 16  2  0
 16 17  1  0
 16 18  1  0
 19 13  1  0
 18 19  2  0
 18 20  1  0
 20 21  1  0
 20 22  1  0
 20 23  1  0
 11 12  1  0
 24  7  1  0
 11 24  2  0
  6  7  1  0
  6 25  1  0
 27  5  1  0
 26 27  1  0
 28  2  2  0
 27 28  1  0
 25 26  2  0
 25 29  1  0
 29 30  2  0
 30 31  1  0
 31 32  2  0
 32 33  1  0
 34 29  1  0
 33 34  2  0
 33 35  1  0
 35 36  1  0
 35 37  1  0
 35 38  1  0
M  END
>  <compound_chembl_id>  (15) 
CHEMBL184657

>  <assay_id>  (15) 
302524

>  <doc_id>  (15) 
21080

>  <description>  (15) 
Binding affinity for human cyclin-dependent kinase 2

>  <assay_organism>  (15) 
Homo sapiens

>  <assay_chembl_id>  (15) 
CHEMBL827377

>  <aidx>  (15) 
CLD0

>  <pref_name>  (15) 
Cyclin-dependent kinase 2

>  <activity_id>  (15) 
1465929

>  <molregno>  (15) 
313297

>  <standard_relation>  (15) 
>

>  <standard_value>  (15) 
19950.

>  <standard_units>  (15) 
nM

>  <standard_flag>  (15) 
1

>  <standard_type>  (15) 
Ki

>  <src_id (#1)>  (15) 
1

>  <type>  (15) 
Ki

>  <relation>  (15) 
>

>  <value>  (15) 
19.95

>  <units>  (15) 
uM

>  <standard_inchi_key>  (15) 
CFJDGPMBIZYASB-UHFFFAOYSA-N

>  <canonical_smiles>  (15) 
Cc1ccc2c(c3ccnc(Nc4ccc(Cl)c(c4)C(F)(F)F)n3)c(nn2n1)c5cccc(c5)C(F)(F)F

$$$$
CHEMBL189617
     RDKit          2D

 37 42  0  0  0  0  0  0  0  0999 V2000
   11.5676   -0.6934    0.0000 C   0  0  0  0  0  0  0  0  0  0  0  0
   10.8294   -0.0240    0.0000 C   0  0  0  0  0  0  0  0  0  0  0  0
    9.8806   -0.3284    0.0000 C   0  0  0  0  0  0  0  0  0  0  0  0
    9.1426    0.3410    0.0000 C   0  0  0  0  0  0  0  0  0  0  0  0
    9.3532    1.3148    0.0000 C   0  0  0  0  0  0  0  0  0  0  0  0
    8.7704    2.1230    0.0000 C   0  0  0  0  0  0  0  0  0  0  0  0
    7.7740    2.1266    0.0000 C   0  0  0  0  0  0  0  0  0  0  0  0
    7.2772    2.9944    0.0000 C   0  0  0  0  0  0  0  0  0  0  0  0
    6.2772    2.9980    0.0000 C   0  0  0  0  0  0  0  0  0  0  0  0
    5.7740    2.1338    0.0000 N   0  0  0  0  0  0  0  0  0  0  0  0
    6.2708    1.2660    0.0000 C   0  0  0  0  0  0  0  0  0  0  0  0
    5.7678    0.4018    0.0000 N   0  0  0  0  0  0  0  0  0  0  0  0
    4.7678    0.4052    0.0000 C   0  0  0  0  0  0  0  0  0  0  0  0
    4.2708    1.2728    0.0000 C   0  0  0  0  0  0  0  0  0  0  0  0
    3.2708    1.2762    0.0000 C   0  0  0  0  0  0  0  0  0  0  0  0
    2.7678    0.4120    0.0000 C   0  0  0  0  0  0  0  0  0  0  0  0
    1.7678    0.4154    0.0000 O   0  0  0  0  0  0  0  0  0  0  0  0
    1.2648   -0.4488    0.0000 C   0  0  0  0  0  0  0  0  0  0  0  0
    1.7622   -1.3166    0.0000 C   0  0  0  0  0  0  0  0  0  0  0  0
    2.7620   -1.3200    0.0000 O   0  0  0  0  0  0  0  0  0  0  0  0
    3.2648   -0.4556    0.0000 C   0  0  0  0  0  0  0  0  0  0  0  0
    4.2648   -0.4590    0.0000 C   0  0  0  0  0  0  0  0  0  0  0  0
    7.2708    1.2624    0.0000 N   0  0  0  0  0  0  0  0  0  0  0  0
    9.3590    2.9270    0.0000 C   0  0  0  0  0  0  0  0  0  0  0  0
   10.3056    2.6158    0.0000 N   0  0  0  0  0  0  0  0  0  0  0  0
   10.3020    1.6194    0.0000 N   0  0  0  0  0  0  0  0  0  0  0  0
   11.0402    0.9500    0.0000 N   0  0  0  0  0  0  0  0  0  0  0  0
    9.0546    3.8758    0.0000 C   0  0  0  0  0  0  0  0  0  0  0  0
    8.0772    4.0874    0.0000 C   0  0  0  0  0  0  0  0  0  0  0  0
    7.7718    5.0396    0.0000 C   0  0  0  0  0  0  0  0  0  0  0  0
    8.4436    5.7802    0.0000 C   0  0  0  0  0  0  0  0  0  0  0  0
    9.4210    5.5686    0.0000 C   0  0  0  0  0  0  0  0  0  0  0  0
    9.7264    4.6164    0.0000 C   0  0  0  0  0  0  0  0  0  0  0  0
   10.0928    6.3092    0.0000 C   0  0  0  0  0  0  0  0  0  0  0  0
   10.8334    5.6374    0.0000 F   0  0  0  0  0  0  0  0  0  0  0  0
   11.0450    6.6146    0.0000 F   0  0  0  0  0  0  0  0  0  0  0  0
    9.7874    7.2614    0.0000 F   0  0  0  0  0  0  0  0  0  0  0  0
  1  2  1  0
  2  3  1  0
  3  4  2  0
  4  5  1  0
  5  6  2  0
  7  8  2  0
  8  9  1  0
  9 10  2  0
 10 11  1  0
 12 13  1  0
 13 14  2  0
 14 15  1  0
 15 16  2  0
 16 17  1  0
 17 18  1  0
 18 19  1  0
 19 20  1  0
 21 16  1  0
 20 21  1  0
 22 13  1  0
 21 22  2  0
 11 12  1  0
 23  7  1  0
 11 23  2  0
  6  7  1  0
  6 24  1  0
 26  5  1  0
 25 26  1  0
 27  2  2  0
 26 27  1  0
 24 25  2  0
 24 28  1  0
 28 29  2  0
 29 30  1  0
 30 31  2  0
 31 32  1  0
 33 28  1  0
 32 33  2  0
 32 34  1  0
 34 35  1  0
 34 36  1  0
 34 37  1  0
M  END
>  <compound_chembl_id>  (16) 
CHEMBL189617

>  <assay_id>  (16) 
302524

>  <doc_id>  (16) 
21080

>  <description>  (16) 
Binding affinity for human cyclin-dependent kinase 2

>  <assay_organism>  (16) 
Homo sapiens

>  <assay_chembl_id>  (16) 
CHEMBL827377

>  <aidx>  (16) 
CLD0

>  <pref_name>  (16) 
Cyclin-dependent kinase 2

>  <activity_id>  (16) 
1465931

>  <molregno>  (16) 
313068

>  <standard_relation>  (16) 
=

>  <standard_value>  (16) 
5000.

>  <standard_units>  (16) 
nM

>  <standard_flag>  (16) 
1

>  <standard_type>  (16) 
Ki

>  <pchembl_value>  (16) 
5.3

>  <src_id (#1)>  (16) 
1

>  <type>  (16) 
Ki

>  <relation>  (16) 
=

>  <value>  (16) 
5.

>  <units>  (16) 
uM

>  <standard_inchi_key>  (16) 
QMRLWEAPWJVLLS-UHFFFAOYSA-N

>  <canonical_smiles>  (16) 
Cc1ccc2c(c3ccnc(Nc4ccc5OCCOc5c4)n3)c(nn2n1)c6cccc(c6)C(F)(F)F

$$$$
CHEMBL187272
     RDKit          2D

 33 37  0  0  0  0  0  0  0  0999 V2000
   11.5676   -0.6934    0.0000 C   0  0  0  0  0  0  0  0  0  0  0  0
   10.8294   -0.0240    0.0000 C   0  0  0  0  0  0  0  0  0  0  0  0
    9.8806   -0.3284    0.0000 C   0  0  0  0  0  0  0  0  0  0  0  0
    9.1426    0.3410    0.0000 C   0  0  0  0  0  0  0  0  0  0  0  0
    9.3532    1.3148    0.0000 C   0  0  0  0  0  0  0  0  0  0  0  0
    8.7704    2.1230    0.0000 C   0  0  0  0  0  0  0  0  0  0  0  0
    7.7740    2.1266    0.0000 C   0  0  0  0  0  0  0  0  0  0  0  0
    7.2772    2.9944    0.0000 C   0  0  0  0  0  0  0  0  0  0  0  0
    6.2772    2.9980    0.0000 C   0  0  0  0  0  0  0  0  0  0  0  0
    5.7740    2.1338    0.0000 N   0  0  0  0  0  0  0  0  0  0  0  0
    6.2708    1.2660    0.0000 C   0  0  0  0  0  0  0  0  0  0  0  0
    5.7678    0.4018    0.0000 N   0  0  0  0  0  0  0  0  0  0  0  0
    4.7678    0.4052    0.0000 C   0  0  0  0  0  0  0  0  0  0  0  0
    4.2708    1.2728    0.0000 C   0  0  0  0  0  0  0  0  0  0  0  0
    3.2708    1.2762    0.0000 C   0  0  0  0  0  0  0  0  0  0  0  0
    2.7678    0.4120    0.0000 C   0  0  0  0  0  0  0  0  0  0  0  0
    3.2648   -0.4556    0.0000 C   0  0  0  0  0  0  0  0  0  0  0  0
    4.2648   -0.4590    0.0000 C   0  0  0  0  0  0  0  0  0  0  0  0
    7.2708    1.2624    0.0000 N   0  0  0  0  0  0  0  0  0  0  0  0
    9.3590    2.9270    0.0000 C   0  0  0  0  0  0  0  0  0  0  0  0
   10.3056    2.6158    0.0000 N   0  0  0  0  0  0  0  0  0  0  0  0
   10.3020    1.6194    0.0000 N   0  0  0  0  0  0  0  0  0  0  0  0
   11.0402    0.9500    0.0000 N   0  0  0  0  0  0  0  0  0  0  0  0
    9.0546    3.8758    0.0000 C   0  0  0  0  0  0  0  0  0  0  0  0
    8.0772    4.0874    0.0000 C   0  0  0  0  0  0  0  0  0  0  0  0
    7.7718    5.0396    0.0000 C   0  0  0  0  0  0  0  0  0  0  0  0
    8.4436    5.7802    0.0000 C   0  0  0  0  0  0  0  0  0  0  0  0
    9.4210    5.5686    0.0000 C   0  0  0  0  0  0  0  0  0  0  0  0
    9.7264    4.6164    0.0000 C   0  0  0  0  0  0  0  0  0  0  0  0
    8.1382    6.7324    0.0000 C   0  0  0  0  0  0  0  0  0  0  0  0
    7.1860    6.4270    0.0000 F   0  0  0  0  0  0  0  0  0  0  0  0
    7.3976    7.4044    0.0000 F   0  0  0  0  0  0  0  0  0  0  0  0
    8.8102    7.4730    0.0000 F   0  0  0  0  0  0  0  0  0  0  0  0
  1  2  1  0
  2  3  1  0
  3  4  2  0
  4  5  1  0
  5  6  2  0
  7  8  2  0
  8  9  1  0
  9 10  2  0
 10 11  1  0
 12 13  1  0
 13 14  2  0
 14 15  1  0
 15 16  2  0
 16 17  1  0
 18 13  1  0
 17 18  2  0
 11 12  1  0
 19  7  1  0
 11 19  2  0
  6  7  1  0
  6 20  1  0
 22  5  1  0
 21 22  1  0
 23  2  2  0
 22 23  1  0
 20 21  2  0
 20 24  1  0
 24 25  2  0
 25 26  1  0
 26 27  2  0
 29 24  1  0
 28 29  2  0
 27 28  1  0
 27 30  1  0
 30 31  1  0
 30 32  1  0
 30 33  1  0
M  END
>  <compound_chembl_id>  (17) 
CHEMBL187272

>  <assay_id>  (17) 
302524

>  <doc_id>  (17) 
21080

>  <description>  (17) 
Binding affinity for human cyclin-dependent kinase 2

>  <assay_organism>  (17) 
Homo sapiens

>  <assay_chembl_id>  (17) 
CHEMBL827377

>  <aidx>  (17) 
CLD0

>  <pref_name>  (17) 
Cyclin-dependent kinase 2

>  <activity_id>  (17) 
1465933

>  <molregno>  (17) 
312846

>  <standard_relation>  (17) 
>

>  <standard_value>  (17) 
19950.

>  <standard_units>  (17) 
nM

>  <standard_flag>  (17) 
1

>  <standard_type>  (17) 
Ki

>  <src_id (#1)>  (17) 
1

>  <type>  (17) 
Ki

>  <relation>  (17) 
>

>  <value>  (17) 
19.95

>  <units>  (17) 
uM

>  <standard_inchi_key>  (17) 
SYZWMFMFXHAARO-UHFFFAOYSA-N

>  <canonical_smiles>  (17) 
Cc1ccc2c(c3ccnc(Nc4ccccc4)n3)c(nn2n1)c5ccc(cc5)C(F)(F)F

$$$$
CHEMBL188247
     RDKit          2D

 37 42  0  0  0  0  0  0  0  0999 V2000
   11.5676   -0.6934    0.0000 C   0  0  0  0  0  0  0  0  0  0  0  0
   10.8294   -0.0240    0.0000 C   0  0  0  0  0  0  0  0  0  0  0  0
    9.8806   -0.3284    0.0000 C   0  0  0  0  0  0  0  0  0  0  0  0
    9.1426    0.3410    0.0000 C   0  0  0  0  0  0  0  0  0  0  0  0
    9.3532    1.3148    0.0000 C   0  0  0  0  0  0  0  0  0  0  0  0
    8.7704    2.1230    0.0000 C   0  0  0  0  0  0  0  0  0  0  0  0
    7.7740    2.1266    0.0000 C   0  0  0  0  0  0  0  0  0  0  0  0
    7.2772    2.9944    0.0000 C   0  0  0  0  0  0  0  0  0  0  0  0
    6.2772    2.9980    0.0000 C   0  0  0  0  0  0  0  0  0  0  0  0
    5.7740    2.1338    0.0000 N   0  0  0  0  0  0  0  0  0  0  0  0
    6.2708    1.2660    0.0000 C   0  0  0  0  0  0  0  0  0  0  0  0
    5.7678    0.4018    0.0000 N   0  0  0  0  0  0  0  0  0  0  0  0
    4.7678    0.4052    0.0000 C   0  0  0  0  0  0  0  0  0  0  0  0
    4.2708    1.2728    0.0000 C   0  0  0  0  0  0  0  0  0  0  0  0
    3.2708    1.2762    0.0000 C   0  0  0  0  0  0  0  0  0  0  0  0
    2.7678    0.4120    0.0000 C   0  0  0  0  0  0  0  0  0  0  0  0
    1.7678    0.4154    0.0000 O   0  0  0  0  0  0  0  0  0  0  0  0
    1.2648   -0.4488    0.0000 C   0  0  0  0  0  0  0  0  0  0  0  0
    1.7622   -1.3166    0.0000 C   0  0  0  0  0  0  0  0  0  0  0  0
    2.7620   -1.3200    0.0000 O   0  0  0  0  0  0  0  0  0  0  0  0
    3.2648   -0.4556    0.0000 C   0  0  0  0  0  0  0  0  0  0  0  0
    4.2648   -0.4590    0.0000 C   0  0  0  0  0  0  0  0  0  0  0  0
    7.2708    1.2624    0.0000 N   0  0  0  0  0  0  0  0  0  0  0  0
    9.3590    2.9270    0.0000 C   0  0  0  0  0  0  0  0  0  0  0  0
   10.3056    2.6158    0.0000 N   0  0  0  0  0  0  0  0  0  0  0  0
   10.3020    1.6194    0.0000 N   0  0  0  0  0  0  0  0  0  0  0  0
   11.0402    0.9500    0.0000 N   0  0  0  0  0  0  0  0  0  0  0  0
    9.0546    3.8758    0.0000 C   0  0  0  0  0  0  0  0  0  0  0  0
    8.0772    4.0874    0.0000 C   0  0  0  0  0  0  0  0  0  0  0  0
    7.7718    5.0396    0.0000 C   0  0  0  0  0  0  0  0  0  0  0  0
    8.4436    5.7802    0.0000 C   0  0  0  0  0  0  0  0  0  0  0  0
    9.4210    5.5686    0.0000 C   0  0  0  0  0  0  0  0  0  0  0  0
    9.7264    4.6164    0.0000 C   0  0  0  0  0  0  0  0  0  0  0  0
    8.1382    6.7324    0.0000 C   0  0  0  0  0  0  0  0  0  0  0  0
    7.1860    6.4270    0.0000 F   0  0  0  0  0  0  0  0  0  0  0  0
    7.3976    7.4044    0.0000 F   0  0  0  0  0  0  0  0  0  0  0  0
    8.8102    7.4730    0.0000 F   0  0  0  0  0  0  0  0  0  0  0  0
  1  2  1  0
  2  3  1  0
  3  4  2  0
  4  5  1  0
  5  6  2  0
  7  8  2  0
  8  9  1  0
  9 10  2  0
 10 11  1  0
 12 13  1  0
 13 14  2  0
 14 15  1  0
 15 16  2  0
 16 17  1  0
 17 18  1  0
 18 19  1  0
 19 20  1  0
 21 16  1  0
 20 21  1  0
 22 13  1  0
 21 22  2  0
 11 12  1  0
 23  7  1  0
 11 23  2  0
  6  7  1  0
  6 24  1  0
 26  5  1  0
 25 26  1  0
 27  2  2  0
 26 27  1  0
 24 25  2  0
 24 28  1  0
 28 29  2  0
 29 30  1  0
 30 31  2  0
 33 28  1  0
 32 33  2  0
 31 32  1  0
 31 34  1  0
 34 35  1  0
 34 36  1  0
 34 37  1  0
M  END
>  <compound_chembl_id>  (18) 
CHEMBL188247

>  <assay_id>  (18) 
302524

>  <doc_id>  (18) 
21080

>  <description>  (18) 
Binding affinity for human cyclin-dependent kinase 2

>  <assay_organism>  (18) 
Homo sapiens

>  <assay_chembl_id>  (18) 
CHEMBL827377

>  <aidx>  (18) 
CLD0

>  <pref_name>  (18) 
Cyclin-dependent kinase 2

>  <activity_id>  (18) 
1465935

>  <molregno>  (18) 
313164

>  <standard_relation>  (18) 
>

>  <standard_value>  (18) 
19950.

>  <standard_units>  (18) 
nM

>  <standard_flag>  (18) 
1

>  <standard_type>  (18) 
Ki

>  <src_id (#1)>  (18) 
1

>  <type>  (18) 
Ki

>  <relation>  (18) 
>

>  <value>  (18) 
19.95

>  <units>  (18) 
uM

>  <standard_inchi_key>  (18) 
JLEUOCWABWBHQW-UHFFFAOYSA-N

>  <canonical_smiles>  (18) 
Cc1ccc2c(c3ccnc(Nc4ccc5OCCOc5c4)n3)c(nn2n1)c6ccc(cc6)C(F)(F)F

$$$$
CHEMBL189459
     RDKit          2D

 30 34  0  0  0  0  0  0  0  0999 V2000
   11.5676   -0.6934    0.0000 C   0  0  0  0  0  0  0  0  0  0  0  0
   10.8294   -0.0240    0.0000 C   0  0  0  0  0  0  0  0  0  0  0  0
    9.8806   -0.3284    0.0000 C   0  0  0  0  0  0  0  0  0  0  0  0
    9.1426    0.3410    0.0000 C   0  0  0  0  0  0  0  0  0  0  0  0
    9.3532    1.3148    0.0000 C   0  0  0  0  0  0  0  0  0  0  0  0
    8.7704    2.1230    0.0000 C   0  0  0  0  0  0  0  0  0  0  0  0
    7.7740    2.1266    0.0000 C   0  0  0  0  0  0  0  0  0  0  0  0
    7.2772    2.9944    0.0000 C   0  0  0  0  0  0  0  0  0  0  0  0
    6.2772    2.9980    0.0000 C   0  0  0  0  0  0  0  0  0  0  0  0
    5.7740    2.1338    0.0000 N   0  0  0  0  0  0  0  0  0  0  0  0
    6.2708    1.2660    0.0000 C   0  0  0  0  0  0  0  0  0  0  0  0
    5.7678    0.4018    0.0000 N   0  0  0  0  0  0  0  0  0  0  0  0
    4.7678    0.4052    0.0000 C   0  0  0  0  0  0  0  0  0  0  0  0
    4.2708    1.2728    0.0000 C   0  0  0  0  0  0  0  0  0  0  0  0
    3.2708    1.2762    0.0000 C   0  0  0  0  0  0  0  0  0  0  0  0
    2.7678    0.4120    0.0000 C   0  0  0  0  0  0  0  0  0  0  0  0
    3.2648   -0.4556    0.0000 C   0  0  0  0  0  0  0  0  0  0  0  0
    4.2648   -0.4590    0.0000 C   0  0  0  0  0  0  0  0  0  0  0  0
    7.2708    1.2624    0.0000 N   0  0  0  0  0  0  0  0  0  0  0  0
    9.3590    2.9270    0.0000 C   0  0  0  0  0  0  0  0  0  0  0  0
   10.3056    2.6158    0.0000 N   0  0  0  0  0  0  0  0  0  0  0  0
   10.3020    1.6194    0.0000 N   0  0  0  0  0  0  0  0  0  0  0  0
   11.0402    0.9500    0.0000 N   0  0  0  0  0  0  0  0  0  0  0  0
    9.0546    3.8758    0.0000 C   0  0  0  0  0  0  0  0  0  0  0  0
    8.0772    4.0874    0.0000 C   0  0  0  0  0  0  0  0  0  0  0  0
    7.7718    5.0396    0.0000 C   0  0  0  0  0  0  0  0  0  0  0  0
    8.4436    5.7802    0.0000 C   0  0  0  0  0  0  0  0  0  0  0  0
    8.1382    6.7324    0.0000 F   0  0  0  0  0  0  0  0  0  0  0  0
    9.4210    5.5686    0.0000 C   0  0  0  0  0  0  0  0  0  0  0  0
    9.7264    4.6164    0.0000 C   0  0  0  0  0  0  0  0  0  0  0  0
  1  2  1  0
  2  3  1  0
  3  4  2  0
  4  5  1  0
  5  6  2  0
  7  8  2  0
  8  9  1  0
  9 10  2  0
 10 11  1  0
 12 13  1  0
 13 14  2  0
 14 15  1  0
 15 16  2  0
 16 17  1  0
 18 13  1  0
 17 18  2  0
 11 12  1  0
 19  7  1  0
 11 19  2  0
  6  7  1  0
  6 20  1  0
 22  5  1  0
 21 22  1  0
 23  2  2  0
 22 23  1  0
 20 21  2  0
 20 24  1  0
 24 25  2  0
 25 26  1  0
 26 27  2  0
 27 28  1  0
 27 29  1  0
 30 24  1  0
 29 30  2  0
M  END
>  <compound_chembl_id>  (19) 
CHEMBL189459

>  <assay_id>  (19) 
302524

>  <doc_id>  (19) 
21080

>  <description>  (19) 
Binding affinity for human cyclin-dependent kinase 2

>  <assay_organism>  (19) 
Homo sapiens

>  <assay_chembl_id>  (19) 
CHEMBL827377

>  <aidx>  (19) 
CLD0

>  <pref_name>  (19) 
Cyclin-dependent kinase 2

>  <activity_id>  (19) 
1465937

>  <molregno>  (19) 
312942

>  <standard_relation>  (19) 
>

>  <standard_value>  (19) 
19950.

>  <standard_units>  (19) 
nM

>  <standard_flag>  (19) 
1

>  <standard_type>  (19) 
Ki

>  <src_id (#1)>  (19) 
1

>  <type>  (19) 
Ki

>  <relation>  (19) 
>

>  <value>  (19) 
19.95

>  <units>  (19) 
uM

>  <standard_inchi_key>  (19) 
QKEWQKWUSAUMEH-UHFFFAOYSA-N

>  <canonical_smiles>  (19) 
Cc1ccc2c(c3ccnc(Nc4ccccc4)n3)c(nn2n1)c5ccc(F)cc5

$$$$
CHEMBL359554
     RDKit          2D

 22 25  0  0  0  0  0  0  0  0999 V2000
    5.7678    0.4018    0.0000 N   0  0  0  0  0  0  0  0  0  0  0  0
    4.7678    0.4052    0.0000 C   0  0  0  0  0  0  0  0  0  0  0  0
    4.2708    1.2728    0.0000 C   0  0  0  0  0  0  0  0  0  0  0  0
    3.2708    1.2762    0.0000 C   0  0  0  0  0  0  0  0  0  0  0  0
    2.7678    0.4120    0.0000 C   0  0  0  0  0  0  0  0  0  0  0  0
    3.2648   -0.4556    0.0000 C   0  0  0  0  0  0  0  0  0  0  0  0
    4.2648   -0.4590    0.0000 C   0  0  0  0  0  0  0  0  0  0  0  0
    6.2708    1.2660    0.0000 C   0  0  0  0  0  0  0  0  0  0  0  0
    5.7740    2.1338    0.0000 N   0  0  0  0  0  0  0  0  0  0  0  0
    6.2772    2.9980    0.0000 C   0  0  0  0  0  0  0  0  0  0  0  0
    7.2772    2.9944    0.0000 C   0  0  0  0  0  0  0  0  0  0  0  0
    7.7740    2.1266    0.0000 C   0  0  0  0  0  0  0  0  0  0  0  0
    7.2708    1.2624    0.0000 N   0  0  0  0  0  0  0  0  0  0  0  0
    8.7704    2.1230    0.0000 C   0  0  0  0  0  0  0  0  0  0  0  0
    9.3590    2.9270    0.0000 C   0  0  0  0  0  0  0  0  0  0  0  0
   10.3056    2.6158    0.0000 N   0  0  0  0  0  0  0  0  0  0  0  0
   10.3020    1.6194    0.0000 N   0  0  0  0  0  0  0  0  0  0  0  0
   11.0402    0.9500    0.0000 N   0  0  0  0  0  0  0  0  0  0  0  0
   10.8294   -0.0240    0.0000 C   0  0  0  0  0  0  0  0  0  0  0  0
    9.8806   -0.3284    0.0000 C   0  0  0  0  0  0  0  0  0  0  0  0
    9.1426    0.3410    0.0000 C   0  0  0  0  0  0  0  0  0  0  0  0
    9.3532    1.3148    0.0000 C   0  0  0  0  0  0  0  0  0  0  0  0
  2  3  2  0
  3  4  1  0
  4  5  2  0
  5  6  1  0
  7  2  1  0
  6  7  2  0
  1  2  1  0
  1  8  1  0
  8  9  2  0
  9 10  1  0
 10 11  2  0
 11 12  1  0
 13  8  1  0
 12 13  2  0
 12 14  1  0
 14 15  1  0
 15 16  2  0
 16 17  1  0
 17 18  1  0
 18 19  2  0
 19 20  1  0
 20 21  2  0
 22 14  2  0
 22 17  1  0
 21 22  1  0
M  END
>  <compound_chembl_id>  (20) 
CHEMBL359554

>  <assay_id>  (20) 
302524

>  <doc_id>  (20) 
21080

>  <description>  (20) 
Binding affinity for human cyclin-dependent kinase 2

>  <assay_organism>  (20) 
Homo sapiens

>  <assay_chembl_id>  (20) 
CHEMBL827377

>  <aidx>  (20) 
CLD0

>  <pref_name>  (20) 
Cyclin-dependent kinase 2

>  <activity_id>  (20) 
1467146

>  <molregno>  (20) 
312945

>  <standard_relation>  (20) 
=

>  <standard_value>  (20) 
5.

>  <standard_units>  (20) 
nM

>  <standard_flag>  (20) 
1

>  <standard_type>  (20) 
Ki

>  <pchembl_value>  (20) 
8.3

>  <src_id (#1)>  (20) 
1

>  <type>  (20) 
Ki

>  <relation>  (20) 
=

>  <value>  (20) 
0.005

>  <units>  (20) 
uM

>  <standard_inchi_key>  (20) 
LIYXXFOSHNQSRD-UHFFFAOYSA-N

>  <canonical_smiles>  (20) 
N(c1ccccc1)c2nccc(n2)c3cnn4ncccc34

$$$$
CHEMBL360866
     RDKit          2D

 23 26  0  0  0  0  0  0  0  0999 V2000
    6.2648   -0.4660    0.0000 C   0  0  0  0  0  0  0  0  0  0  0  0
    5.7678    0.4018    0.0000 N   0  0  0  0  0  0  0  0  0  0  0  0
    4.7678    0.4052    0.0000 C   0  0  0  0  0  0  0  0  0  0  0  0
    4.2708    1.2728    0.0000 C   0  0  0  0  0  0  0  0  0  0  0  0
    3.2708    1.2762    0.0000 C   0  0  0  0  0  0  0  0  0  0  0  0
    2.7678    0.4120    0.0000 C   0  0  0  0  0  0  0  0  0  0  0  0
    3.2648   -0.4556    0.0000 C   0  0  0  0  0  0  0  0  0  0  0  0
    4.2648   -0.4590    0.0000 C   0  0  0  0  0  0  0  0  0  0  0  0
    6.2708    1.2660    0.0000 C   0  0  0  0  0  0  0  0  0  0  0  0
    5.7740    2.1338    0.0000 N   0  0  0  0  0  0  0  0  0  0  0  0
    6.2772    2.9980    0.0000 C   0  0  0  0  0  0  0  0  0  0  0  0
    7.2772    2.9944    0.0000 C   0  0  0  0  0  0  0  0  0  0  0  0
    7.7740    2.1266    0.0000 C   0  0  0  0  0  0  0  0  0  0  0  0
    7.2708    1.2624    0.0000 N   0  0  0  0  0  0  0  0  0  0  0  0
    8.7704    2.1230    0.0000 C   0  0  0  0  0  0  0  0  0  0  0  0
    9.3590    2.9270    0.0000 C   0  0  0  0  0  0  0  0  0  0  0  0
   10.3056    2.6158    0.0000 N   0  0  0  0  0  0  0  0  0  0  0  0
   10.3020    1.6194    0.0000 N   0  0  0  0  0  0  0  0  0  0  0  0
   11.0402    0.9500    0.0000 N   0  0  0  0  0  0  0  0  0  0  0  0
   10.8294   -0.0240    0.0000 C   0  0  0  0  0  0  0  0  0  0  0  0
    9.8806   -0.3284    0.0000 C   0  0  0  0  0  0  0  0  0  0  0  0
    9.1426    0.3410    0.0000 C   0  0  0  0  0  0  0  0  0  0  0  0
    9.3532    1.3148    0.0000 C   0  0  0  0  0  0  0  0  0  0  0  0
  1  2  1  0
  3  4  2  0
  4  5  1  0
  5  6  2  0
  6  7  1  0
  8  3  1  0
  7  8  2  0
  2  3  1  0
  2  9  1  0
  9 10  2  0
 10 11  1  0
 11 12  2  0
 12 13  1  0
 14  9  1  0
 13 14  2  0
 13 15  1  0
 15 16  1  0
 16 17  2  0
 17 18  1  0
 18 19  1  0
 19 20  2  0
 20 21  1  0
 21 22  2  0
 23 15  2  0
 23 18  1  0
 22 23  1  0
M  END
>  <compound_chembl_id>  (21) 
CHEMBL360866

>  <assay_id>  (21) 
302524

>  <doc_id>  (21) 
21080

>  <description>  (21) 
Binding affinity for human cyclin-dependent kinase 2

>  <assay_organism>  (21) 
Homo sapiens

>  <assay_chembl_id>  (21) 
CHEMBL827377

>  <aidx>  (21) 
CLD0

>  <pref_name>  (21) 
Cyclin-dependent kinase 2

>  <activity_id>  (21) 
1467151

>  <molregno>  (21) 
312975

>  <standard_relation>  (21) 
=

>  <standard_value>  (21) 
19900.

>  <standard_units>  (21) 
nM

>  <standard_flag>  (21) 
1

>  <standard_type>  (21) 
Ki

>  <pchembl_value>  (21) 
4.7

>  <src_id (#1)>  (21) 
1

>  <type>  (21) 
Ki

>  <relation>  (21) 
=

>  <value>  (21) 
19.9

>  <units>  (21) 
uM

>  <standard_inchi_key>  (21) 
XYEFJKRTJUALOK-UHFFFAOYSA-N

>  <canonical_smiles>  (21) 
CN(c1ccccc1)c2nccc(n2)c3cnn4ncccc34

$$$$
CHEMBL187081
     RDKit          2D

 24 27  0  0  0  0  0  0  0  0999 V2000
    1.7738    2.1474    0.0000 C   0  0  0  0  0  0  0  0  0  0  0  0
    2.7738    2.1440    0.0000 O   0  0  0  0  0  0  0  0  0  0  0  0
    3.2708    1.2762    0.0000 C   0  0  0  0  0  0  0  0  0  0  0  0
    2.7678    0.4120    0.0000 C   0  0  0  0  0  0  0  0  0  0  0  0
    3.2648   -0.4556    0.0000 C   0  0  0  0  0  0  0  0  0  0  0  0
    4.2648   -0.4590    0.0000 C   0  0  0  0  0  0  0  0  0  0  0  0
    4.7678    0.4052    0.0000 C   0  0  0  0  0  0  0  0  0  0  0  0
    5.7678    0.4018    0.0000 N   0  0  0  0  0  0  0  0  0  0  0  0
    6.2708    1.2660    0.0000 C   0  0  0  0  0  0  0  0  0  0  0  0
    5.7740    2.1338    0.0000 N   0  0  0  0  0  0  0  0  0  0  0  0
    6.2772    2.9980    0.0000 C   0  0  0  0  0  0  0  0  0  0  0  0
    7.2772    2.9944    0.0000 C   0  0  0  0  0  0  0  0  0  0  0  0
    7.7740    2.1266    0.0000 C   0  0  0  0  0  0  0  0  0  0  0  0
    7.2708    1.2624    0.0000 N   0  0  0  0  0  0  0  0  0  0  0  0
    8.7704    2.1230    0.0000 C   0  0  0  0  0  0  0  0  0  0  0  0
    9.3590    2.9270    0.0000 C   0  0  0  0  0  0  0  0  0  0  0  0
   10.3056    2.6158    0.0000 N   0  0  0  0  0  0  0  0  0  0  0  0
   10.3020    1.6194    0.0000 N   0  0  0  0  0  0  0  0  0  0  0  0
   11.0402    0.9500    0.0000 N   0  0  0  0  0  0  0  0  0  0  0  0
   10.8294   -0.0240    0.0000 C   0  0  0  0  0  0  0  0  0  0  0  0
    9.8806   -0.3284    0.0000 C   0  0  0  0  0  0  0  0  0  0  0  0
    9.1426    0.3410    0.0000 C   0  0  0  0  0  0  0  0  0  0  0  0
    9.3532    1.3148    0.0000 C   0  0  0  0  0  0  0  0  0  0  0  0
    4.2708    1.2728    0.0000 C   0  0  0  0  0  0  0  0  0  0  0  0
  1  2  1  0
  2  3  1  0
  3  4  2  0
  4  5  1  0
  5  6  2  0
  6  7  1  0
  8  9  1  0
  9 10  2  0
 10 11  1  0
 11 12  2  0
 12 13  1  0
 14  9  1  0
 13 14  2  0
 13 15  1  0
 15 16  1  0
 16 17  2  0
 17 18  1  0
 18 19  1  0
 19 20  2  0
 20 21  1  0
 21 22  2  0
 23 15  2  0
 23 18  1  0
 22 23  1  0
  7  8  1  0
 24  3  1  0
  7 24  2  0
M  END
>  <compound_chembl_id>  (22) 
CHEMBL187081

>  <assay_id>  (22) 
302524

>  <doc_id>  (22) 
21080

>  <description>  (22) 
Binding affinity for human cyclin-dependent kinase 2

>  <assay_organism>  (22) 
Homo sapiens

>  <assay_chembl_id>  (22) 
CHEMBL827377

>  <aidx>  (22) 
CLD0

>  <pref_name>  (22) 
Cyclin-dependent kinase 2

>  <activity_id>  (22) 
1467157

>  <molregno>  (22) 
313270

>  <standard_relation>  (22) 
=

>  <standard_value>  (22) 
2.

>  <standard_units>  (22) 
nM

>  <standard_flag>  (22) 
1

>  <standard_type>  (22) 
Ki

>  <pchembl_value>  (22) 
8.7

>  <src_id (#1)>  (22) 
1

>  <type>  (22) 
Ki

>  <relation>  (22) 
=

>  <value>  (22) 
0.002

>  <units>  (22) 
uM

>  <standard_inchi_key>  (22) 
GBNWWXHUOVAUHT-UHFFFAOYSA-N

>  <canonical_smiles>  (22) 
COc1cccc(Nc2nccc(n2)c3cnn4ncccc34)c1

$$$$
CHEMBL359794
     RDKit          2D

 24 27  0  0  0  0  0  0  0  0999 V2000
    0.7678    0.4188    0.0000 N   0  0  0  0  0  0  0  0  0  0  0  0
    1.7678    0.4154    0.0000 C   0  0  0  0  0  0  0  0  0  0  0  0
    2.7678    0.4120    0.0000 C   0  0  0  0  0  0  0  0  0  0  0  0
    3.2708    1.2762    0.0000 C   0  0  0  0  0  0  0  0  0  0  0  0
    4.2708    1.2728    0.0000 C   0  0  0  0  0  0  0  0  0  0  0  0
    4.7678    0.4052    0.0000 C   0  0  0  0  0  0  0  0  0  0  0  0
    5.7678    0.4018    0.0000 N   0  0  0  0  0  0  0  0  0  0  0  0
    6.2708    1.2660    0.0000 C   0  0  0  0  0  0  0  0  0  0  0  0
    5.7740    2.1338    0.0000 N   0  0  0  0  0  0  0  0  0  0  0  0
    6.2772    2.9980    0.0000 C   0  0  0  0  0  0  0  0  0  0  0  0
    7.2772    2.9944    0.0000 C   0  0  0  0  0  0  0  0  0  0  0  0
    7.7740    2.1266    0.0000 C   0  0  0  0  0  0  0  0  0  0  0  0
    7.2708    1.2624    0.0000 N   0  0  0  0  0  0  0  0  0  0  0  0
    8.7704    2.1230    0.0000 C   0  0  0  0  0  0  0  0  0  0  0  0
    9.3590    2.9270    0.0000 C   0  0  0  0  0  0  0  0  0  0  0  0
   10.3056    2.6158    0.0000 N   0  0  0  0  0  0  0  0  0  0  0  0
   10.3020    1.6194    0.0000 N   0  0  0  0  0  0  0  0  0  0  0  0
   11.0402    0.9500    0.0000 N   0  0  0  0  0  0  0  0  0  0  0  0
   10.8294   -0.0240    0.0000 C   0  0  0  0  0  0  0  0  0  0  0  0
    9.8806   -0.3284    0.0000 C   0  0  0  0  0  0  0  0  0  0  0  0
    9.1426    0.3410    0.0000 C   0  0  0  0  0  0  0  0  0  0  0  0
    9.3532    1.3148    0.0000 C   0  0  0  0  0  0  0  0  0  0  0  0
    4.2648   -0.4590    0.0000 C   0  0  0  0  0  0  0  0  0  0  0  0
    3.2648   -0.4556    0.0000 C   0  0  0  0  0  0  0  0  0  0  0  0
  1  2  3  0
  2  3  1  0
  3  4  2  0
  4  5  1  0
  5  6  2  0
  7  8  1  0
  8  9  2  0
  9 10  1  0
 10 11  2  0
 11 12  1  0
 13  8  1  0
 12 13  2  0
 12 14  1  0
 14 15  1  0
 15 16  2  0
 16 17  1  0
 17 18  1  0
 18 19  2  0
 19 20  1  0
 20 21  2  0
 22 14  2  0
 22 17  1  0
 21 22  1  0
  6  7  1  0
  6 23  1  0
 24  3  1  0
 23 24  2  0
M  END
>  <compound_chembl_id>  (23) 
CHEMBL359794

>  <assay_id>  (23) 
302524

>  <doc_id>  (23) 
21080

>  <description>  (23) 
Binding affinity for human cyclin-dependent kinase 2

>  <assay_organism>  (23) 
Homo sapiens

>  <assay_chembl_id>  (23) 
CHEMBL827377

>  <aidx>  (23) 
CLD0

>  <pref_name>  (23) 
Cyclin-dependent kinase 2

>  <activity_id>  (23) 
1467162

>  <molregno>  (23) 
313040

>  <standard_relation>  (23) 
=

>  <standard_value>  (23) 
1.

>  <standard_units>  (23) 
nM

>  <standard_flag>  (23) 
1

>  <standard_type>  (23) 
Ki

>  <pchembl_value>  (23) 
9.

>  <src_id (#1)>  (23) 
1

>  <type>  (23) 
Ki

>  <relation>  (23) 
=

>  <value>  (23) 
0.001

>  <units>  (23) 
uM

>  <standard_inchi_key>  (23) 
YRSCDRTXWYUNBB-UHFFFAOYSA-N

>  <canonical_smiles>  (23) 
N#Cc1ccc(Nc2nccc(n2)c3cnn4ncccc34)cc1

$$$$
CHEMBL188938
     RDKit          2D

 25 28  0  0  0  0  0  0  0  0999 V2000
    1.2648   -0.4488    0.0000 O   0  0  0  0  0  0  0  0  0  0  0  0
    1.7678    0.4154    0.0000 N   0  0  0  0  0  0  0  0  0  0  0  0
    1.2708    1.2830    0.0000 O   0  0  0  0  0  0  0  0  0  0  0  0
    2.7678    0.4120    0.0000 C   0  0  0  0  0  0  0  0  0  0  0  0
    3.2708    1.2762    0.0000 C   0  0  0  0  0  0  0  0  0  0  0  0
    4.2708    1.2728    0.0000 C   0  0  0  0  0  0  0  0  0  0  0  0
    4.7678    0.4052    0.0000 C   0  0  0  0  0  0  0  0  0  0  0  0
    5.7678    0.4018    0.0000 N   0  0  0  0  0  0  0  0  0  0  0  0
    6.2708    1.2660    0.0000 C   0  0  0  0  0  0  0  0  0  0  0  0
    5.7740    2.1338    0.0000 N   0  0  0  0  0  0  0  0  0  0  0  0
    6.2772    2.9980    0.0000 C   0  0  0  0  0  0  0  0  0  0  0  0
    7.2772    2.9944    0.0000 C   0  0  0  0  0  0  0  0  0  0  0  0
    7.7740    2.1266    0.0000 C   0  0  0  0  0  0  0  0  0  0  0  0
    7.2708    1.2624    0.0000 N   0  0  0  0  0  0  0  0  0  0  0  0
    8.7704    2.1230    0.0000 C   0  0  0  0  0  0  0  0  0  0  0  0
    9.3590    2.9270    0.0000 C   0  0  0  0  0  0  0  0  0  0  0  0
   10.3056    2.6158    0.0000 N   0  0  0  0  0  0  0  0  0  0  0  0
   10.3020    1.6194    0.0000 N   0  0  0  0  0  0  0  0  0  0  0  0
   11.0402    0.9500    0.0000 N   0  0  0  0  0  0  0  0  0  0  0  0
   10.8294   -0.0240    0.0000 C   0  0  0  0  0  0  0  0  0  0  0  0
    9.8806   -0.3284    0.0000 C   0  0  0  0  0  0  0  0  0  0  0  0
    9.1426    0.3410    0.0000 C   0  0  0  0  0  0  0  0  0  0  0  0
    9.3532    1.3148    0.0000 C   0  0  0  0  0  0  0  0  0  0  0  0
    4.2648   -0.4590    0.0000 C   0  0  0  0  0  0  0  0  0  0  0  0
    3.2648   -0.4556    0.0000 C   0  0  0  0  0  0  0  0  0  0  0  0
  1  2  1  0
  2  3  2  0
  2  4  1  0
  4  5  2  0
  5  6  1  0
  6  7  2  0
  8  9  1  0
  9 10  2  0
 10 11  1  0
 11 12  2  0
 12 13  1  0
 14  9  1  0
 13 14  2  0
 13 15  1  0
 15 16  1  0
 16 17  2  0
 17 18  1  0
 18 19  1  0
 19 20  2  0
 20 21  1  0
 21 22  2  0
 23 15  2  0
 23 18  1  0
 22 23  1  0
  7  8  1  0
  7 24  1  0
 25  4  1  0
 24 25  2  0
M  CHG  2   1  -1   2   1
M  END
>  <compound_chembl_id>  (24) 
CHEMBL188938

>  <assay_id>  (24) 
302524

>  <doc_id>  (24) 
21080

>  <description>  (24) 
Binding affinity for human cyclin-dependent kinase 2

>  <assay_organism>  (24) 
Homo sapiens

>  <assay_chembl_id>  (24) 
CHEMBL827377

>  <aidx>  (24) 
CLD0

>  <pref_name>  (24) 
Cyclin-dependent kinase 2

>  <activity_id>  (24) 
1467268

>  <molregno>  (24) 
313041

>  <standard_relation>  (24) 
=

>  <standard_value>  (24) 
20.

>  <standard_units>  (24) 
nM

>  <standard_flag>  (24) 
1

>  <standard_type>  (24) 
Ki

>  <pchembl_value>  (24) 
7.7

>  <src_id (#1)>  (24) 
1

>  <type>  (24) 
Ki

>  <relation>  (24) 
=

>  <value>  (24) 
0.02

>  <units>  (24) 
uM

>  <standard_inchi_key>  (24) 
RVBOIHXTZQGXRV-UHFFFAOYSA-N

>  <canonical_smiles>  (24) 
[O-][N+](=O)c1ccc(Nc2nccc(n2)c3cnn4ncccc34)cc1

$$$$
CHEMBL359963
     RDKit          2D

 25 28  0  0  0  0  0  0  0  0999 V2000
    1.2648   -0.4488    0.0000 C   0  0  0  0  0  0  0  0  0  0  0  0
    1.7678    0.4154    0.0000 C   0  0  0  0  0  0  0  0  0  0  0  0
    1.2708    1.2830    0.0000 C   0  0  0  0  0  0  0  0  0  0  0  0
    2.7678    0.4120    0.0000 C   0  0  0  0  0  0  0  0  0  0  0  0
    3.2708    1.2762    0.0000 C   0  0  0  0  0  0  0  0  0  0  0  0
    4.2708    1.2728    0.0000 C   0  0  0  0  0  0  0  0  0  0  0  0
    4.7678    0.4052    0.0000 C   0  0  0  0  0  0  0  0  0  0  0  0
    5.7678    0.4018    0.0000 N   0  0  0  0  0  0  0  0  0  0  0  0
    6.2708    1.2660    0.0000 C   0  0  0  0  0  0  0  0  0  0  0  0
    5.7740    2.1338    0.0000 N   0  0  0  0  0  0  0  0  0  0  0  0
    6.2772    2.9980    0.0000 C   0  0  0  0  0  0  0  0  0  0  0  0
    7.2772    2.9944    0.0000 C   0  0  0  0  0  0  0  0  0  0  0  0
    7.7740    2.1266    0.0000 C   0  0  0  0  0  0  0  0  0  0  0  0
    7.2708    1.2624    0.0000 N   0  0  0  0  0  0  0  0  0  0  0  0
    8.7704    2.1230    0.0000 C   0  0  0  0  0  0  0  0  0  0  0  0
    9.3590    2.9270    0.0000 C   0  0  0  0  0  0  0  0  0  0  0  0
   10.3056    2.6158    0.0000 N   0  0  0  0  0  0  0  0  0  0  0  0
   10.3020    1.6194    0.0000 N   0  0  0  0  0  0  0  0  0  0  0  0
   11.0402    0.9500    0.0000 N   0  0  0  0  0  0  0  0  0  0  0  0
   10.8294   -0.0240    0.0000 C   0  0  0  0  0  0  0  0  0  0  0  0
    9.8806   -0.3284    0.0000 C   0  0  0  0  0  0  0  0  0  0  0  0
    9.1426    0.3410    0.0000 C   0  0  0  0  0  0  0  0  0  0  0  0
    9.3532    1.3148    0.0000 C   0  0  0  0  0  0  0  0  0  0  0  0
    4.2648   -0.4590    0.0000 C   0  0  0  0  0  0  0  0  0  0  0  0
    3.2648   -0.4556    0.0000 C   0  0  0  0  0  0  0  0  0  0  0  0
  1  2  1  0
  2  3  1  0
  2  4  1  0
  4  5  2  0
  5  6  1  0
  6  7  2  0
  8  9  1  0
  9 10  2  0
 10 11  1  0
 11 12  2  0
 12 13  1  0
 14  9  1  0
 13 14  2  0
 13 15  1  0
 15 16  1  0
 16 17  2  0
 17 18  1  0
 18 19  1  0
 19 20  2  0
 20 21  1  0
 21 22  2  0
 23 15  2  0
 23 18  1  0
 22 23  1  0
  7  8  1  0
  7 24  1  0
 25  4  1  0
 24 25  2  0
M  END
>  <compound_chembl_id>  (25) 
CHEMBL359963

>  <assay_id>  (25) 
302524

>  <doc_id>  (25) 
21080

>  <description>  (25) 
Binding affinity for human cyclin-dependent kinase 2

>  <assay_organism>  (25) 
Homo sapiens

>  <assay_chembl_id>  (25) 
CHEMBL827377

>  <aidx>  (25) 
CLD0

>  <pref_name>  (25) 
Cyclin-dependent kinase 2

>  <activity_id>  (25) 
1467271

>  <molregno>  (25) 
312758

>  <standard_relation>  (25) 
=

>  <standard_value>  (25) 
10.

>  <standard_units>  (25) 
nM

>  <standard_flag>  (25) 
1

>  <standard_type>  (25) 
Ki

>  <pchembl_value>  (25) 
8.

>  <src_id (#1)>  (25) 
1

>  <type>  (25) 
Ki

>  <relation>  (25) 
=

>  <value>  (25) 
0.01

>  <units>  (25) 
uM

>  <standard_inchi_key>  (25) 
UODXTGBFBIFREQ-UHFFFAOYSA-N

>  <canonical_smiles>  (25) 
CC(C)c1ccc(Nc2nccc(n2)c3cnn4ncccc34)cc1

$$$$
CHEMBL185871
     RDKit          2D

 26 29  0  0  0  0  0  0  0  0999 V2000
    0.2645   -0.4456    0.0000 C   0  0  0  0  0  0  0  0  0  0  0  0
    1.2644   -0.4491    0.0000 C   0  0  0  0  0  0  0  0  0  0  0  0
    1.7673    0.4152    0.0000 C   0  0  0  0  0  0  0  0  0  0  0  0
    1.2703    1.2829    0.0000 C   0  0  0  0  0  0  0  0  0  0  0  0
    2.7682    0.4118    0.0000 C   0  0  0  0  0  0  0  0  0  0  0  0
    3.2703    1.2763    0.0000 C   0  0  0  0  0  0  0  0  0  0  0  0
    4.2709    1.2731    0.0000 C   0  0  0  0  0  0  0  0  0  0  0  0
    4.7674    0.4053    0.0000 C   0  0  0  0  0  0  0  0  0  0  0  0
    5.7684    0.4015    0.0000 N   0  0  0  0  0  0  0  0  0  0  0  0
    6.2708    1.2662    0.0000 C   0  0  0  0  0  0  0  0  0  0  0  0
    5.7741    2.1337    0.0000 N   0  0  0  0  0  0  0  0  0  0  0  0
    6.2770    2.9983    0.0000 C   0  0  0  0  0  0  0  0  0  0  0  0
    7.2771    2.9942    0.0000 C   0  0  0  0  0  0  0  0  0  0  0  0
    7.7738    2.1267    0.0000 C   0  0  0  0  0  0  0  0  0  0  0  0
    7.2710    1.2621    0.0000 N   0  0  0  0  0  0  0  0  0  0  0  0
    8.7675    2.1244    0.0000 C   0  0  0  0  0  0  0  0  0  0  0  0
    9.3593    2.9304    0.0000 C   0  0  0  0  0  0  0  0  0  0  0  0
   10.3087    2.6195    0.0000 N   0  0  0  0  0  0  0  0  0  0  0  0
   10.3048    1.6189    0.0000 N   0  0  0  0  0  0  0  0  0  0  0  0
   11.0456    0.9482    0.0000 N   0  0  0  0  0  0  0  0  0  0  0  0
   10.8336   -0.0294    0.0000 C   0  0  0  0  0  0  0  0  0  0  0  0
    9.8822   -0.3325    0.0000 C   0  0  0  0  0  0  0  0  0  0  0  0
    9.1407    0.3365    0.0000 C   0  0  0  0  0  0  0  0  0  0  0  0
    9.3525    1.3144    0.0000 C   0  0  0  0  0  0  0  0  0  0  0  0
    4.2653   -0.4592    0.0000 C   0  0  0  0  0  0  0  0  0  0  0  0
    3.2647   -0.4559    0.0000 C   0  0  0  0  0  0  0  0  0  0  0  0
  1  2  1  0
  3  2  1  0
  3  4  1  0
  3  5  1  0
  5  6  2  0
  6  7  1  0
  7  8  2  0
  9 10  1  0
 10 11  2  0
 11 12  1  0
 12 13  2  0
 13 14  1  0
 15 10  1  0
 14 15  2  0
 14 16  1  0
 16 17  1  0
 17 18  2  0
 18 19  1  0
 19 20  1  0
 20 21  2  0
 21 22  1  0
 22 23  2  0
 24 16  2  0
 24 19  1  0
 23 24  1  0
  8  9  1  0
  8 25  1  0
 26  5  1  0
 25 26  2  0
M  END
>  <compound_chembl_id>  (26) 
CHEMBL185871

>  <assay_id>  (26) 
302524

>  <doc_id>  (26) 
21080

>  <description>  (26) 
Binding affinity for human cyclin-dependent kinase 2

>  <assay_organism>  (26) 
Homo sapiens

>  <assay_chembl_id>  (26) 
CHEMBL827377

>  <aidx>  (26) 
CLD0

>  <pref_name>  (26) 
Cyclin-dependent kinase 2

>  <activity_id>  (26) 
1467275

>  <molregno>  (26) 
312790

>  <standard_relation>  (26) 
=

>  <standard_value>  (26) 
150.

>  <standard_units>  (26) 
nM

>  <standard_flag>  (26) 
1

>  <standard_type>  (26) 
Ki

>  <pchembl_value>  (26) 
6.82

>  <src_id (#1)>  (26) 
1

>  <type>  (26) 
Ki

>  <relation>  (26) 
=

>  <value>  (26) 
0.15

>  <units>  (26) 
uM

>  <standard_inchi_key>  (26) 
YRGZDNHXSLVEOX-UHFFFAOYSA-N

>  <canonical_smiles>  (26) 
CCC(C)c1ccc(Nc2nccc(n2)c3cnn4ncccc34)cc1

$$$$
CHEMBL364587
     RDKit          2D

 26 29  0  0  0  0  0  0  0  0999 V2000
    1.7712    1.4154    0.0000 C   0  0  0  0  0  0  0  0  0  0  0  0
    1.7678    0.4154    0.0000 C   0  0  0  0  0  0  0  0  0  0  0  0
    0.9036    0.9184    0.0000 C   0  0  0  0  0  0  0  0  0  0  0  0
    1.2648   -0.4488    0.0000 C   0  0  0  0  0  0  0  0  0  0  0  0
    2.7678    0.4120    0.0000 C   0  0  0  0  0  0  0  0  0  0  0  0
    3.2708    1.2762    0.0000 C   0  0  0  0  0  0  0  0  0  0  0  0
    4.2708    1.2728    0.0000 C   0  0  0  0  0  0  0  0  0  0  0  0
    4.7678    0.4052    0.0000 C   0  0  0  0  0  0  0  0  0  0  0  0
    5.7678    0.4018    0.0000 N   0  0  0  0  0  0  0  0  0  0  0  0
    6.2708    1.2660    0.0000 C   0  0  0  0  0  0  0  0  0  0  0  0
    5.7740    2.1338    0.0000 N   0  0  0  0  0  0  0  0  0  0  0  0
    6.2772    2.9980    0.0000 C   0  0  0  0  0  0  0  0  0  0  0  0
    7.2772    2.9944    0.0000 C   0  0  0  0  0  0  0  0  0  0  0  0
    7.7740    2.1266    0.0000 C   0  0  0  0  0  0  0  0  0  0  0  0
    7.2708    1.2624    0.0000 N   0  0  0  0  0  0  0  0  0  0  0  0
    8.7704    2.1230    0.0000 C   0  0  0  0  0  0  0  0  0  0  0  0
    9.3590    2.9270    0.0000 C   0  0  0  0  0  0  0  0  0  0  0  0
   10.3056    2.6158    0.0000 N   0  0  0  0  0  0  0  0  0  0  0  0
   10.3020    1.6194    0.0000 N   0  0  0  0  0  0  0  0  0  0  0  0
   11.0402    0.9500    0.0000 N   0  0  0  0  0  0  0  0  0  0  0  0
   10.8294   -0.0240    0.0000 C   0  0  0  0  0  0  0  0  0  0  0  0
    9.8806   -0.3284    0.0000 C   0  0  0  0  0  0  0  0  0  0  0  0
    9.1426    0.3410    0.0000 C   0  0  0  0  0  0  0  0  0  0  0  0
    9.3532    1.3148    0.0000 C   0  0  0  0  0  0  0  0  0  0  0  0
    4.2648   -0.4590    0.0000 C   0  0  0  0  0  0  0  0  0  0  0  0
    3.2648   -0.4556    0.0000 C   0  0  0  0  0  0  0  0  0  0  0  0
  1  2  1  0
  2  3  1  0
  2  4  1  0
  2  5  1  0
  5  6  2  0
  6  7  1  0
  7  8  2  0
  9 10  1  0
 10 11  2  0
 11 12  1  0
 12 13  2  0
 13 14  1  0
 15 10  1  0
 14 15  2  0
 14 16  1  0
 16 17  1  0
 17 18  2  0
 18 19  1  0
 19 20  1  0
 20 21  2  0
 21 22  1  0
 22 23  2  0
 24 16  2  0
 24 19  1  0
 23 24  1  0
  8  9  1  0
  8 25  1  0
 26  5  1  0
 25 26  2  0
M  END
>  <compound_chembl_id>  (27) 
CHEMBL364587

>  <assay_id>  (27) 
302524

>  <doc_id>  (27) 
21080

>  <description>  (27) 
Binding affinity for human cyclin-dependent kinase 2

>  <assay_organism>  (27) 
Homo sapiens

>  <assay_chembl_id>  (27) 
CHEMBL827377

>  <aidx>  (27) 
CLD0

>  <pref_name>  (27) 
Cyclin-dependent kinase 2

>  <activity_id>  (27) 
1467278

>  <molregno>  (27) 
312804

>  <standard_relation>  (27) 
=

>  <standard_value>  (27) 
150.

>  <standard_units>  (27) 
nM

>  <standard_flag>  (27) 
1

>  <standard_type>  (27) 
Ki

>  <pchembl_value>  (27) 
6.82

>  <src_id (#1)>  (27) 
1

>  <type>  (27) 
Ki

>  <relation>  (27) 
=

>  <value>  (27) 
0.15

>  <units>  (27) 
uM

>  <standard_inchi_key>  (27) 
ZNTCURDIWRJLBI-UHFFFAOYSA-N

>  <canonical_smiles>  (27) 
CC(C)(C)c1ccc(Nc2nccc(n2)c3cnn4ncccc34)cc1

$$$$
CHEMBL186054
     RDKit          2D

 26 29  0  0  0  0  0  0  0  0999 V2000
    1.2648   -0.4488    0.0000 C   0  0  0  0  0  0  0  0  0  0  0  0
    1.7678    0.4154    0.0000 O   0  0  0  0  0  0  0  0  0  0  0  0
    2.7678    0.4120    0.0000 C   0  0  0  0  0  0  0  0  0  0  0  0
    3.2708    1.2762    0.0000 C   0  0  0  0  0  0  0  0  0  0  0  0
    4.2708    1.2728    0.0000 C   0  0  0  0  0  0  0  0  0  0  0  0
    4.7678    0.4052    0.0000 C   0  0  0  0  0  0  0  0  0  0  0  0
    5.7678    0.4018    0.0000 N   0  0  0  0  0  0  0  0  0  0  0  0
    6.2708    1.2660    0.0000 C   0  0  0  0  0  0  0  0  0  0  0  0
    5.7740    2.1338    0.0000 N   0  0  0  0  0  0  0  0  0  0  0  0
    6.2772    2.9980    0.0000 C   0  0  0  0  0  0  0  0  0  0  0  0
    7.2772    2.9944    0.0000 C   0  0  0  0  0  0  0  0  0  0  0  0
    7.7740    2.1266    0.0000 C   0  0  0  0  0  0  0  0  0  0  0  0
    7.2708    1.2624    0.0000 N   0  0  0  0  0  0  0  0  0  0  0  0
    8.7704    2.1230    0.0000 C   0  0  0  0  0  0  0  0  0  0  0  0
    9.3590    2.9270    0.0000 C   0  0  0  0  0  0  0  0  0  0  0  0
   10.3056    2.6158    0.0000 N   0  0  0  0  0  0  0  0  0  0  0  0
   10.3020    1.6194    0.0000 N   0  0  0  0  0  0  0  0  0  0  0  0
   11.0402    0.9500    0.0000 N   0  0  0  0  0  0  0  0  0  0  0  0
   10.8294   -0.0240    0.0000 C   0  0  0  0  0  0  0  0  0  0  0  0
    9.8806   -0.3284    0.0000 C   0  0  0  0  0  0  0  0  0  0  0  0
    9.1426    0.3410    0.0000 C   0  0  0  0  0  0  0  0  0  0  0  0
    9.3532    1.3148    0.0000 C   0  0  0  0  0  0  0  0  0  0  0  0
    4.2648   -0.4590    0.0000 C   0  0  0  0  0  0  0  0  0  0  0  0
    3.2648   -0.4556    0.0000 C   0  0  0  0  0  0  0  0  0  0  0  0
    2.7620   -1.3200    0.0000 O   0  0  0  0  0  0  0  0  0  0  0  0
    1.7620   -1.3168    0.0000 C   0  0  0  0  0  0  0  0  0  0  0  0
  1  2  1  0
  2  3  1  0
  3  4  2  0
  4  5  1  0
  5  6  2  0
  7  8  1  0
  8  9  2  0
  9 10  1  0
 10 11  2  0
 11 12  1  0
 13  8  1  0
 12 13  2  0
 12 14  1  0
 14 15  1  0
 15 16  2  0
 16 17  1  0
 17 18  1  0
 18 19  2  0
 19 20  1  0
 20 21  2  0
 22 14  2  0
 22 17  1  0
 21 22  1  0
  6  7  1  0
  6 23  1  0
 24  3  1  0
 23 24  2  0
 24 25  1  0
 25 26  1  0
M  END
>  <compound_chembl_id>  (28) 
CHEMBL186054

>  <assay_id>  (28) 
302524

>  <doc_id>  (28) 
21080

>  <description>  (28) 
Binding affinity for human cyclin-dependent kinase 2

>  <assay_organism>  (28) 
Homo sapiens

>  <assay_chembl_id>  (28) 
CHEMBL827377

>  <aidx>  (28) 
CLD0

>  <pref_name>  (28) 
Cyclin-dependent kinase 2

>  <activity_id>  (28) 
1467281

>  <molregno>  (28) 
312697

>  <standard_relation>  (28) 
=

>  <standard_value>  (28) 
50.

>  <standard_units>  (28) 
nM

>  <standard_flag>  (28) 
1

>  <standard_type>  (28) 
Ki

>  <pchembl_value>  (28) 
7.3

>  <src_id (#1)>  (28) 
1

>  <type>  (28) 
Ki

>  <relation>  (28) 
=

>  <value>  (28) 
0.05

>  <units>  (28) 
uM

>  <standard_inchi_key>  (28) 
AGAYQQLAAVQQLA-UHFFFAOYSA-N

>  <canonical_smiles>  (28) 
COc1ccc(Nc2nccc(n2)c3cnn4ncccc34)cc1OC

$$$$
CHEMBL189455
     RDKit          2D

 25 29  0  0  0  0  0  0  0  0999 V2000
    1.6812   -0.7868    0.0000 C   0  0  0  0  0  0  0  0  0  0  0  0
    1.7892    0.2074    0.0000 O   0  0  0  0  0  0  0  0  0  0  0  0
    2.7678    0.4120    0.0000 C   0  0  0  0  0  0  0  0  0  0  0  0
    3.2708    1.2762    0.0000 C   0  0  0  0  0  0  0  0  0  0  0  0
    4.2708    1.2728    0.0000 C   0  0  0  0  0  0  0  0  0  0  0  0
    4.7678    0.4052    0.0000 C   0  0  0  0  0  0  0  0  0  0  0  0
    5.7678    0.4018    0.0000 N   0  0  0  0  0  0  0  0  0  0  0  0
    6.2708    1.2660    0.0000 C   0  0  0  0  0  0  0  0  0  0  0  0
    5.7740    2.1338    0.0000 N   0  0  0  0  0  0  0  0  0  0  0  0
    6.2772    2.9980    0.0000 C   0  0  0  0  0  0  0  0  0  0  0  0
    7.2772    2.9944    0.0000 C   0  0  0  0  0  0  0  0  0  0  0  0
    7.7740    2.1266    0.0000 C   0  0  0  0  0  0  0  0  0  0  0  0
    7.2708    1.2624    0.0000 N   0  0  0  0  0  0  0  0  0  0  0  0
    8.7704    2.1230    0.0000 C   0  0  0  0  0  0  0  0  0  0  0  0
    9.3590    2.9270    0.0000 C   0  0  0  0  0  0  0  0  0  0  0  0
   10.3056    2.6158    0.0000 N   0  0  0  0  0  0  0  0  0  0  0  0
   10.3020    1.6194    0.0000 N   0  0  0  0  0  0  0  0  0  0  0  0
   11.0402    0.9500    0.0000 N   0  0  0  0  0  0  0  0  0  0  0  0
   10.8294   -0.0240    0.0000 C   0  0  0  0  0  0  0  0  0  0  0  0
    9.8806   -0.3284    0.0000 C   0  0  0  0  0  0  0  0  0  0  0  0
    9.1426    0.3410    0.0000 C   0  0  0  0  0  0  0  0  0  0  0  0
    9.3532    1.3148    0.0000 C   0  0  0  0  0  0  0  0  0  0  0  0
    4.2648   -0.4590    0.0000 C   0  0  0  0  0  0  0  0  0  0  0  0
    3.2648   -0.4556    0.0000 C   0  0  0  0  0  0  0  0  0  0  0  0
    2.5934   -1.1966    0.0000 O   0  0  0  0  0  0  0  0  0  0  0  0
  1  2  1  0
  2  3  1  0
  3  4  2  0
  4  5  1  0
  5  6  2  0
  7  8  1  0
  8  9  2  0
  9 10  1  0
 10 11  2  0
 11 12  1  0
 13  8  1  0
 12 13  2  0
 12 14  1  0
 14 15  1  0
 15 16  2  0
 16 17  1  0
 17 18  1  0
 18 19  2  0
 19 20  1  0
 20 21  2  0
 22 14  2  0
 22 17  1  0
 21 22  1  0
  6  7  1  0
  6 23  1  0
 24  3  1  0
 23 24  2  0
 25  1  1  0
 24 25  1  0
M  END
>  <compound_chembl_id>  (29) 
CHEMBL189455

>  <assay_id>  (29) 
302524

>  <doc_id>  (29) 
21080

>  <description>  (29) 
Binding affinity for human cyclin-dependent kinase 2

>  <assay_organism>  (29) 
Homo sapiens

>  <assay_chembl_id>  (29) 
CHEMBL827377

>  <aidx>  (29) 
CLD0

>  <pref_name>  (29) 
Cyclin-dependent kinase 2

>  <activity_id>  (29) 
1467286

>  <molregno>  (29) 
312710

>  <standard_relation>  (29) 
=

>  <standard_value>  (29) 
10.

>  <standard_units>  (29) 
nM

>  <standard_flag>  (29) 
1

>  <standard_type>  (29) 
Ki

>  <pchembl_value>  (29) 
8.

>  <src_id (#1)>  (29) 
1

>  <type>  (29) 
Ki

>  <relation>  (29) 
=

>  <value>  (29) 
0.01

>  <units>  (29) 
uM

>  <standard_inchi_key>  (29) 
QGMKFIGNGWVOSE-UHFFFAOYSA-N

>  <canonical_smiles>  (29) 
C1Oc2ccc(Nc3nccc(n3)c4cnn5ncccc45)cc2O1

$$$$
CHEMBL361894
     RDKit          2D

 26 30  0  0  0  0  0  0  0  0999 V2000
    1.2708    1.2830    0.0000 C   0  0  0  0  0  0  0  0  0  0  0  0
    1.7740    2.1474    0.0000 C   0  0  0  0  0  0  0  0  0  0  0  0
    2.7738    2.1440    0.0000 O   0  0  0  0  0  0  0  0  0  0  0  0
    3.2708    1.2762    0.0000 C   0  0  0  0  0  0  0  0  0  0  0  0
    4.2708    1.2728    0.0000 C   0  0  0  0  0  0  0  0  0  0  0  0
    4.7678    0.4052    0.0000 C   0  0  0  0  0  0  0  0  0  0  0  0
    5.7678    0.4018    0.0000 N   0  0  0  0  0  0  0  0  0  0  0  0
    6.2708    1.2660    0.0000 C   0  0  0  0  0  0  0  0  0  0  0  0
    5.7740    2.1338    0.0000 N   0  0  0  0  0  0  0  0  0  0  0  0
    6.2772    2.9980    0.0000 C   0  0  0  0  0  0  0  0  0  0  0  0
    7.2772    2.9944    0.0000 C   0  0  0  0  0  0  0  0  0  0  0  0
    7.7740    2.1266    0.0000 C   0  0  0  0  0  0  0  0  0  0  0  0
    7.2708    1.2624    0.0000 N   0  0  0  0  0  0  0  0  0  0  0  0
    8.7704    2.1230    0.0000 C   0  0  0  0  0  0  0  0  0  0  0  0
    9.3590    2.9270    0.0000 C   0  0  0  0  0  0  0  0  0  0  0  0
   10.3056    2.6158    0.0000 N   0  0  0  0  0  0  0  0  0  0  0  0
   10.3020    1.6194    0.0000 N   0  0  0  0  0  0  0  0  0  0  0  0
   11.0402    0.9500    0.0000 N   0  0  0  0  0  0  0  0  0  0  0  0
   10.8294   -0.0240    0.0000 C   0  0  0  0  0  0  0  0  0  0  0  0
    9.8806   -0.3284    0.0000 C   0  0  0  0  0  0  0  0  0  0  0  0
    9.1426    0.3410    0.0000 C   0  0  0  0  0  0  0  0  0  0  0  0
    9.3532    1.3148    0.0000 C   0  0  0  0  0  0  0  0  0  0  0  0
    4.2648   -0.4590    0.0000 C   0  0  0  0  0  0  0  0  0  0  0  0
    3.2648   -0.4556    0.0000 C   0  0  0  0  0  0  0  0  0  0  0  0
    2.7678    0.4120    0.0000 C   0  0  0  0  0  0  0  0  0  0  0  0
    1.7678    0.4154    0.0000 O   0  0  0  0  0  0  0  0  0  0  0  0
  1  2  1  0
  2  3  1  0
  3  4  1  0
  4  5  1  0
  5  6  2  0
  7  8  1  0
  8  9  2  0
  9 10  1  0
 10 11  2  0
 11 12  1  0
 13  8  1  0
 12 13  2  0
 12 14  1  0
 14 15  1  0
 15 16  2  0
 16 17  1  0
 17 18  1  0
 18 19  2  0
 19 20  1  0
 20 21  2  0
 22 14  2  0
 22 17  1  0
 21 22  1  0
  6  7  1  0
  6 23  1  0
 23 24  2  0
 25  4  2  0
 24 25  1  0
 26  1  1  0
 25 26  1  0
M  END
>  <compound_chembl_id>  (30) 
CHEMBL361894

>  <assay_id>  (30) 
302524

>  <doc_id>  (30) 
21080

>  <description>  (30) 
Binding affinity for human cyclin-dependent kinase 2

>  <assay_organism>  (30) 
Homo sapiens

>  <assay_chembl_id>  (30) 
CHEMBL827377

>  <aidx>  (30) 
CLD0

>  <pref_name>  (30) 
Cyclin-dependent kinase 2

>  <activity_id>  (30) 
1467289

>  <molregno>  (30) 
312601

>  <standard_relation>  (30) 
=

>  <standard_value>  (30) 
6.

>  <standard_units>  (30) 
nM

>  <standard_flag>  (30) 
1

>  <standard_type>  (30) 
Ki

>  <pchembl_value>  (30) 
8.22

>  <src_id (#1)>  (30) 
1

>  <type>  (30) 
Ki

>  <relation>  (30) 
=

>  <value>  (30) 
0.006

>  <units>  (30) 
uM

>  <standard_inchi_key>  (30) 
WIIIHAKKVLVGJX-UHFFFAOYSA-N

>  <canonical_smiles>  (30) 
C1COc2cc(Nc3nccc(n3)c4cnn5ncccc45)ccc2O1

$$$$
CHEMBL364370
     RDKit          2D

 24 27  0  0  0  0  0  0  0  0999 V2000
    1.7678    0.4154    0.0000 F   0  0  0  0  0  0  0  0  0  0  0  0
    2.7678    0.4120    0.0000 C   0  0  0  0  0  0  0  0  0  0  0  0
    3.2708    1.2762    0.0000 C   0  0  0  0  0  0  0  0  0  0  0  0
    4.2708    1.2728    0.0000 C   0  0  0  0  0  0  0  0  0  0  0  0
    4.7678    0.4052    0.0000 C   0  0  0  0  0  0  0  0  0  0  0  0
    5.7678    0.4018    0.0000 N   0  0  0  0  0  0  0  0  0  0  0  0
    6.2708    1.2660    0.0000 C   0  0  0  0  0  0  0  0  0  0  0  0
    5.7740    2.1338    0.0000 N   0  0  0  0  0  0  0  0  0  0  0  0
    6.2772    2.9980    0.0000 C   0  0  0  0  0  0  0  0  0  0  0  0
    7.2772    2.9944    0.0000 C   0  0  0  0  0  0  0  0  0  0  0  0
    7.7740    2.1266    0.0000 C   0  0  0  0  0  0  0  0  0  0  0  0
    7.2708    1.2624    0.0000 N   0  0  0  0  0  0  0  0  0  0  0  0
    8.7704    2.1230    0.0000 C   0  0  0  0  0  0  0  0  0  0  0  0
    9.3590    2.9270    0.0000 C   0  0  0  0  0  0  0  0  0  0  0  0
   10.3056    2.6158    0.0000 N   0  0  0  0  0  0  0  0  0  0  0  0
   10.3020    1.6194    0.0000 N   0  0  0  0  0  0  0  0  0  0  0  0
   11.0402    0.9500    0.0000 N   0  0  0  0  0  0  0  0  0  0  0  0
   10.8294   -0.0240    0.0000 C   0  0  0  0  0  0  0  0  0  0  0  0
    9.8806   -0.3284    0.0000 C   0  0  0  0  0  0  0  0  0  0  0  0
    9.1426    0.3410    0.0000 C   0  0  0  0  0  0  0  0  0  0  0  0
    9.3532    1.3148    0.0000 C   0  0  0  0  0  0  0  0  0  0  0  0
    4.2648   -0.4590    0.0000 C   0  0  0  0  0  0  0  0  0  0  0  0
    3.2648   -0.4556    0.0000 C   0  0  0  0  0  0  0  0  0  0  0  0
    2.7620   -1.3200    0.0000 F   0  0  0  0  0  0  0  0  0  0  0  0
  1  2  1  0
  2  3  2  0
  3  4  1  0
  4  5  2  0
  6  7  1  0
  7  8  2  0
  8  9  1  0
  9 10  2  0
 10 11  1  0
 12  7  1  0
 11 12  2  0
 11 13  1  0
 13 14  1  0
 14 15  2  0
 15 16  1  0
 16 17  1  0
 17 18  2  0
 18 19  1  0
 19 20  2  0
 21 13  2  0
 21 16  1  0
 20 21  1  0
  5  6  1  0
  5 22  1  0
 23  2  1  0
 22 23  2  0
 23 24  1  0
M  END
>  <compound_chembl_id>  (31) 
CHEMBL364370

>  <assay_id>  (31) 
302524

>  <doc_id>  (31) 
21080

>  <description>  (31) 
Binding affinity for human cyclin-dependent kinase 2

>  <assay_organism>  (31) 
Homo sapiens

>  <assay_chembl_id>  (31) 
CHEMBL827377

>  <aidx>  (31) 
CLD0

>  <pref_name>  (31) 
Cyclin-dependent kinase 2

>  <activity_id>  (31) 
1467294

>  <molregno>  (31) 
312602

>  <standard_relation>  (31) 
=

>  <standard_value>  (31) 
2.

>  <standard_units>  (31) 
nM

>  <standard_flag>  (31) 
1

>  <standard_type>  (31) 
Ki

>  <pchembl_value>  (31) 
8.7

>  <src_id (#1)>  (31) 
1

>  <type>  (31) 
Ki

>  <relation>  (31) 
=

>  <value>  (31) 
0.002

>  <units>  (31) 
uM

>  <standard_inchi_key>  (31) 
BLZGDFUGFILBJG-UHFFFAOYSA-N

>  <canonical_smiles>  (31) 
Fc1ccc(Nc2nccc(n2)c3cnn4ncccc34)cc1F

$$$$
CHEMBL186708
     RDKit          2D

 27 31  0  0  0  0  0  0  0  0999 V2000
    1.1156   -1.1108    0.0000 C   0  0  0  0  0  0  0  0  0  0  0  0
    1.0442   -0.1134    0.0000 C   0  0  0  0  0  0  0  0  0  0  0  0
    1.7796    0.5644    0.0000 O   0  0  0  0  0  0  0  0  0  0  0  0
    2.7678    0.4120    0.0000 C   0  0  0  0  0  0  0  0  0  0  0  0
    3.2708    1.2762    0.0000 C   0  0  0  0  0  0  0  0  0  0  0  0
    4.2708    1.2728    0.0000 C   0  0  0  0  0  0  0  0  0  0  0  0
    4.7678    0.4052    0.0000 C   0  0  0  0  0  0  0  0  0  0  0  0
    5.7678    0.4018    0.0000 N   0  0  0  0  0  0  0  0  0  0  0  0
    6.2708    1.2660    0.0000 C   0  0  0  0  0  0  0  0  0  0  0  0
    5.7740    2.1338    0.0000 N   0  0  0  0  0  0  0  0  0  0  0  0
    6.2772    2.9980    0.0000 C   0  0  0  0  0  0  0  0  0  0  0  0
    7.2772    2.9944    0.0000 C   0  0  0  0  0  0  0  0  0  0  0  0
    7.7740    2.1266    0.0000 C   0  0  0  0  0  0  0  0  0  0  0  0
    7.2708    1.2624    0.0000 N   0  0  0  0  0  0  0  0  0  0  0  0
    8.7704    2.1230    0.0000 C   0  0  0  0  0  0  0  0  0  0  0  0
    9.3590    2.9270    0.0000 C   0  0  0  0  0  0  0  0  0  0  0  0
   10.3056    2.6158    0.0000 N   0  0  0  0  0  0  0  0  0  0  0  0
   10.3020    1.6194    0.0000 N   0  0  0  0  0  0  0  0  0  0  0  0
   11.0402    0.9500    0.0000 N   0  0  0  0  0  0  0  0  0  0  0  0
   10.8294   -0.0240    0.0000 C   0  0  0  0  0  0  0  0  0  0  0  0
    9.8806   -0.3284    0.0000 C   0  0  0  0  0  0  0  0  0  0  0  0
    9.1426    0.3410    0.0000 C   0  0  0  0  0  0  0  0  0  0  0  0
    9.3532    1.3148    0.0000 C   0  0  0  0  0  0  0  0  0  0  0  0
    4.2648   -0.4590    0.0000 C   0  0  0  0  0  0  0  0  0  0  0  0
    3.2648   -0.4556    0.0000 C   0  0  0  0  0  0  0  0  0  0  0  0
    2.8966   -1.3852    0.0000 O   0  0  0  0  0  0  0  0  0  0  0  0
    1.9400   -1.6770    0.0000 C   0  0  0  0  0  0  0  0  0  0  0  0
  1  2  1  0
  2  3  1  0
  3  4  1  0
  4  5  2  0
  5  6  1  0
  6  7  2  0
  8  9  1  0
  9 10  2  0
 10 11  1  0
 11 12  2  0
 12 13  1  0
 14  9  1  0
 13 14  2  0
 13 15  1  0
 15 16  1  0
 16 17  2  0
 17 18  1  0
 18 19  1  0
 19 20  2  0
 20 21  1  0
 21 22  2  0
 23 15  2  0
 23 18  1  0
 22 23  1  0
  7  8  1  0
  7 24  1  0
 25  4  1  0
 24 25  2  0
 25 26  1  0
 27  1  1  0
 26 27  1  0
M  END
>  <compound_chembl_id>  (32) 
CHEMBL186708

>  <assay_id>  (32) 
302524

>  <doc_id>  (32) 
21080

>  <description>  (32) 
Binding affinity for human cyclin-dependent kinase 2

>  <assay_organism>  (32) 
Homo sapiens

>  <assay_chembl_id>  (32) 
CHEMBL827377

>  <aidx>  (32) 
CLD0

>  <pref_name>  (32) 
Cyclin-dependent kinase 2

>  <activity_id>  (32) 
1467297

>  <molregno>  (32) 
312762

>  <standard_relation>  (32) 
=

>  <standard_value>  (32) 
6.

>  <standard_units>  (32) 
nM

>  <standard_flag>  (32) 
1

>  <standard_type>  (32) 
Ki

>  <pchembl_value>  (32) 
8.22

>  <src_id (#1)>  (32) 
1

>  <type>  (32) 
Ki

>  <relation>  (32) 
=

>  <value>  (32) 
0.006

>  <units>  (32) 
uM

>  <standard_inchi_key>  (32) 
CXHLTNFGZLWOKU-UHFFFAOYSA-N

>  <canonical_smiles>  (32) 
C1COc2ccc(Nc3nccc(n3)c4cnn5ncccc45)cc2OC1

$$$$
CHEMBL186890
     RDKit          2D

 24 27  0  0  0  0  0  0  0  0999 V2000
    1.7678    0.4154    0.0000 Cl  0  0  0  0  0  0  0  0  0  0  0  0
    2.7678    0.4120    0.0000 C   0  0  0  0  0  0  0  0  0  0  0  0
    3.2708    1.2762    0.0000 C   0  0  0  0  0  0  0  0  0  0  0  0
    4.2708    1.2728    0.0000 C   0  0  0  0  0  0  0  0  0  0  0  0
    4.7678    0.4052    0.0000 C   0  0  0  0  0  0  0  0  0  0  0  0
    5.7678    0.4018    0.0000 N   0  0  0  0  0  0  0  0  0  0  0  0
    6.2708    1.2660    0.0000 C   0  0  0  0  0  0  0  0  0  0  0  0
    5.7740    2.1338    0.0000 N   0  0  0  0  0  0  0  0  0  0  0  0
    6.2772    2.9980    0.0000 C   0  0  0  0  0  0  0  0  0  0  0  0
    7.2772    2.9944    0.0000 C   0  0  0  0  0  0  0  0  0  0  0  0
    7.7740    2.1266    0.0000 C   0  0  0  0  0  0  0  0  0  0  0  0
    7.2708    1.2624    0.0000 N   0  0  0  0  0  0  0  0  0  0  0  0
    8.7704    2.1230    0.0000 C   0  0  0  0  0  0  0  0  0  0  0  0
    9.3590    2.9270    0.0000 C   0  0  0  0  0  0  0  0  0  0  0  0
   10.3056    2.6158    0.0000 N   0  0  0  0  0  0  0  0  0  0  0  0
   10.3020    1.6194    0.0000 N   0  0  0  0  0  0  0  0  0  0  0  0
   11.0402    0.9500    0.0000 N   0  0  0  0  0  0  0  0  0  0  0  0
   10.8294   -0.0240    0.0000 C   0  0  0  0  0  0  0  0  0  0  0  0
    9.8806   -0.3284    0.0000 C   0  0  0  0  0  0  0  0  0  0  0  0
    9.1426    0.3410    0.0000 C   0  0  0  0  0  0  0  0  0  0  0  0
    9.3532    1.3148    0.0000 C   0  0  0  0  0  0  0  0  0  0  0  0
    4.2648   -0.4590    0.0000 C   0  0  0  0  0  0  0  0  0  0  0  0
    3.2648   -0.4556    0.0000 C   0  0  0  0  0  0  0  0  0  0  0  0
    2.7620   -1.3200    0.0000 Cl  0  0  0  0  0  0  0  0  0  0  0  0
  1  2  1  0
  2  3  2  0
  3  4  1  0
  4  5  2  0
  6  7  1  0
  7  8  2  0
  8  9  1  0
  9 10  2  0
 10 11  1  0
 12  7  1  0
 11 12  2  0
 11 13  1  0
 13 14  1  0
 14 15  2  0
 15 16  1  0
 16 17  1  0
 17 18  2  0
 18 19  1  0
 19 20  2  0
 21 13  2  0
 21 16  1  0
 20 21  1  0
  5  6  1  0
  5 22  1  0
 23  2  1  0
 22 23  2  0
 23 24  1  0
M  END
>  <compound_chembl_id>  (33) 
CHEMBL186890

>  <assay_id>  (33) 
302524

>  <doc_id>  (33) 
21080

>  <description>  (33) 
Binding affinity for human cyclin-dependent kinase 2

>  <assay_organism>  (33) 
Homo sapiens

>  <assay_chembl_id>  (33) 
CHEMBL827377

>  <aidx>  (33) 
CLD0

>  <pref_name>  (33) 
Cyclin-dependent kinase 2

>  <activity_id>  (33) 
1467300

>  <molregno>  (33) 
312763

>  <standard_relation>  (33) 
=

>  <standard_value>  (33) 
1.

>  <standard_units>  (33) 
nM

>  <standard_flag>  (33) 
1

>  <standard_type>  (33) 
Ki

>  <pchembl_value>  (33) 
9.

>  <src_id (#1)>  (33) 
1

>  <type>  (33) 
Ki

>  <relation>  (33) 
=

>  <value>  (33) 
0.001

>  <units>  (33) 
uM

>  <standard_inchi_key>  (33) 
BOQORPXVPMXARS-UHFFFAOYSA-N

>  <canonical_smiles>  (33) 
Clc1ccc(Nc2nccc(n2)c3cnn4ncccc34)cc1Cl

$$$$
CHEMBL188665
     RDKit          2D

 27 30  0  0  0  0  0  0  0  0999 V2000
    3.6416    2.6410    0.0000 F   0  0  0  0  0  0  0  0  0  0  0  0
    2.7738    2.1440    0.0000 C   0  0  0  0  0  0  0  0  0  0  0  0
    2.7772    3.1440    0.0000 F   0  0  0  0  0  0  0  0  0  0  0  0
    1.7738    2.1474    0.0000 F   0  0  0  0  0  0  0  0  0  0  0  0
    3.2708    1.2762    0.0000 C   0  0  0  0  0  0  0  0  0  0  0  0
    4.2708    1.2728    0.0000 C   0  0  0  0  0  0  0  0  0  0  0  0
    4.7678    0.4052    0.0000 C   0  0  0  0  0  0  0  0  0  0  0  0
    5.7678    0.4018    0.0000 N   0  0  0  0  0  0  0  0  0  0  0  0
    6.2708    1.2660    0.0000 C   0  0  0  0  0  0  0  0  0  0  0  0
    5.7740    2.1338    0.0000 N   0  0  0  0  0  0  0  0  0  0  0  0
    6.2772    2.9980    0.0000 C   0  0  0  0  0  0  0  0  0  0  0  0
    7.2772    2.9944    0.0000 C   0  0  0  0  0  0  0  0  0  0  0  0
    7.7740    2.1266    0.0000 C   0  0  0  0  0  0  0  0  0  0  0  0
    7.2708    1.2624    0.0000 N   0  0  0  0  0  0  0  0  0  0  0  0
    8.7704    2.1230    0.0000 C   0  0  0  0  0  0  0  0  0  0  0  0
    9.3590    2.9270    0.0000 C   0  0  0  0  0  0  0  0  0  0  0  0
   10.3056    2.6158    0.0000 N   0  0  0  0  0  0  0  0  0  0  0  0
   10.3020    1.6194    0.0000 N   0  0  0  0  0  0  0  0  0  0  0  0
   11.0402    0.9500    0.0000 N   0  0  0  0  0  0  0  0  0  0  0  0
   10.8294   -0.0240    0.0000 C   0  0  0  0  0  0  0  0  0  0  0  0
    9.8806   -0.3284    0.0000 C   0  0  0  0  0  0  0  0  0  0  0  0
    9.1426    0.3410    0.0000 C   0  0  0  0  0  0  0  0  0  0  0  0
    9.3532    1.3148    0.0000 C   0  0  0  0  0  0  0  0  0  0  0  0
    4.2648   -0.4590    0.0000 C   0  0  0  0  0  0  0  0  0  0  0  0
    3.2648   -0.4556    0.0000 C   0  0  0  0  0  0  0  0  0  0  0  0
    2.7678    0.4120    0.0000 C   0  0  0  0  0  0  0  0  0  0  0  0
    1.7678    0.4154    0.0000 Cl  0  0  0  0  0  0  0  0  0  0  0  0
  1  2  1  0
  2  3  1  0
  2  4  1  0
  2  5  1  0
  5  6  2  0
  6  7  1  0
  8  9  1  0
  9 10  2  0
 10 11  1  0
 11 12  2  0
 12 13  1  0
 14  9  1  0
 13 14  2  0
 13 15  1  0
 15 16  1  0
 16 17  2  0
 17 18  1  0
 18 19  1  0
 19 20  2  0
 20 21  1  0
 21 22  2  0
 23 15  2  0
 23 18  1  0
 22 23  1  0
  7  8  1  0
  7 24  2  0
 24 25  1  0
 26  5  1  0
 25 26  2  0
 26 27  1  0
M  END
>  <compound_chembl_id>  (34) 
CHEMBL188665

>  <assay_id>  (34) 
302524

>  <doc_id>  (34) 
21080

>  <description>  (34) 
Binding affinity for human cyclin-dependent kinase 2

>  <assay_organism>  (34) 
Homo sapiens

>  <assay_chembl_id>  (34) 
CHEMBL827377

>  <aidx>  (34) 
CLD0

>  <pref_name>  (34) 
Cyclin-dependent kinase 2

>  <activity_id>  (34) 
1467405

>  <molregno>  (34) 
312937

>  <standard_relation>  (34) 
=

>  <standard_value>  (34) 
10.

>  <standard_units>  (34) 
nM

>  <standard_flag>  (34) 
1

>  <standard_type>  (34) 
Ki

>  <pchembl_value>  (34) 
8.

>  <src_id (#1)>  (34) 
1

>  <type>  (34) 
Ki

>  <relation>  (34) 
=

>  <value>  (34) 
0.01

>  <units>  (34) 
uM

>  <standard_inchi_key>  (34) 
FGECJLIFPRCLCB-UHFFFAOYSA-N

>  <canonical_smiles>  (34) 
FC(F)(F)c1cc(Nc2nccc(n2)c3cnn4ncccc34)ccc1Cl

$$$$
CHEMBL359999
     RDKit          2D

 26 29  0  0  0  0  0  0  0  0999 V2000
    1.7738    2.1474    0.0000 C   0  0  0  0  0  0  0  0  0  0  0  0
    2.7738    2.1440    0.0000 O   0  0  0  0  0  0  0  0  0  0  0  0
    3.2708    1.2762    0.0000 C   0  0  0  0  0  0  0  0  0  0  0  0
    4.2708    1.2728    0.0000 C   0  0  0  0  0  0  0  0  0  0  0  0
    4.7678    0.4052    0.0000 C   0  0  0  0  0  0  0  0  0  0  0  0
    5.7678    0.4018    0.0000 N   0  0  0  0  0  0  0  0  0  0  0  0
    6.2708    1.2660    0.0000 C   0  0  0  0  0  0  0  0  0  0  0  0
    5.7740    2.1338    0.0000 N   0  0  0  0  0  0  0  0  0  0  0  0
    6.2772    2.9980    0.0000 C   0  0  0  0  0  0  0  0  0  0  0  0
    7.2772    2.9944    0.0000 C   0  0  0  0  0  0  0  0  0  0  0  0
    7.7740    2.1266    0.0000 C   0  0  0  0  0  0  0  0  0  0  0  0
    7.2708    1.2624    0.0000 N   0  0  0  0  0  0  0  0  0  0  0  0
    8.7704    2.1230    0.0000 C   0  0  0  0  0  0  0  0  0  0  0  0
    9.3590    2.9270    0.0000 C   0  0  0  0  0  0  0  0  0  0  0  0
   10.3056    2.6158    0.0000 N   0  0  0  0  0  0  0  0  0  0  0  0
   10.3020    1.6194    0.0000 N   0  0  0  0  0  0  0  0  0  0  0  0
   11.0402    0.9500    0.0000 N   0  0  0  0  0  0  0  0  0  0  0  0
   10.8294   -0.0240    0.0000 C   0  0  0  0  0  0  0  0  0  0  0  0
    9.8806   -0.3284    0.0000 C   0  0  0  0  0  0  0  0  0  0  0  0
    9.1426    0.3410    0.0000 C   0  0  0  0  0  0  0  0  0  0  0  0
    9.3532    1.3148    0.0000 C   0  0  0  0  0  0  0  0  0  0  0  0
    4.2648   -0.4590    0.0000 C   0  0  0  0  0  0  0  0  0  0  0  0
    3.2648   -0.4556    0.0000 C   0  0  0  0  0  0  0  0  0  0  0  0
    2.7620   -1.3200    0.0000 O   0  0  0  0  0  0  0  0  0  0  0  0
    1.7620   -1.3168    0.0000 C   0  0  0  0  0  0  0  0  0  0  0  0
    2.7678    0.4120    0.0000 C   0  0  0  0  0  0  0  0  0  0  0  0
  1  2  1  0
  2  3  1  0
  3  4  2  0
  4  5  1  0
  6  7  1  0
  7  8  2  0
  8  9  1  0
  9 10  2  0
 10 11  1  0
 12  7  1  0
 11 12  2  0
 11 13  1  0
 13 14  1  0
 14 15  2  0
 15 16  1  0
 16 17  1  0
 17 18  2  0
 18 19  1  0
 19 20  2  0
 21 13  2  0
 21 16  1  0
 20 21  1  0
  5  6  1  0
  5 22  2  0
 22 23  1  0
 24 25  1  0
 23 24  1  0
 26  3  1  0
 23 26  2  0
M  END
>  <compound_chembl_id>  (35) 
CHEMBL359999

>  <assay_id>  (35) 
302524

>  <doc_id>  (35) 
21080

>  <description>  (35) 
Binding affinity for human cyclin-dependent kinase 2

>  <assay_organism>  (35) 
Homo sapiens

>  <assay_chembl_id>  (35) 
CHEMBL827377

>  <aidx>  (35) 
CLD0

>  <pref_name>  (35) 
Cyclin-dependent kinase 2

>  <activity_id>  (35) 
1467410

>  <molregno>  (35) 
312968

>  <standard_relation>  (35) 
=

>  <standard_value>  (35) 
10.

>  <standard_units>  (35) 
nM

>  <standard_flag>  (35) 
1

>  <standard_type>  (35) 
Ki

>  <pchembl_value>  (35) 
8.

>  <src_id (#1)>  (35) 
1

>  <type>  (35) 
Ki

>  <relation>  (35) 
=

>  <value>  (35) 
0.01

>  <units>  (35) 
uM

>  <standard_inchi_key>  (35) 
XSJMSGALWUODPK-UHFFFAOYSA-N

>  <canonical_smiles>  (35) 
COc1cc(Nc2nccc(n2)c3cnn4ncccc34)cc(OC)c1

$$$$
CHEMBL360206
     RDKit          2D

 28 31  0  0  0  0  0  0  0  0999 V2000
    1.7738    2.1474    0.0000 C   0  0  0  0  0  0  0  0  0  0  0  0
    2.7738    2.1440    0.0000 O   0  0  0  0  0  0  0  0  0  0  0  0
    3.2708    1.2762    0.0000 C   0  0  0  0  0  0  0  0  0  0  0  0
    4.2708    1.2728    0.0000 C   0  0  0  0  0  0  0  0  0  0  0  0
    4.7678    0.4052    0.0000 C   0  0  0  0  0  0  0  0  0  0  0  0
    5.7678    0.4018    0.0000 N   0  0  0  0  0  0  0  0  0  0  0  0
    6.2708    1.2660    0.0000 C   0  0  0  0  0  0  0  0  0  0  0  0
    5.7740    2.1338    0.0000 N   0  0  0  0  0  0  0  0  0  0  0  0
    6.2772    2.9980    0.0000 C   0  0  0  0  0  0  0  0  0  0  0  0
    7.2772    2.9944    0.0000 C   0  0  0  0  0  0  0  0  0  0  0  0
    7.7740    2.1266    0.0000 C   0  0  0  0  0  0  0  0  0  0  0  0
    7.2708    1.2624    0.0000 N   0  0  0  0  0  0  0  0  0  0  0  0
    8.7704    2.1230    0.0000 C   0  0  0  0  0  0  0  0  0  0  0  0
    9.3590    2.9270    0.0000 C   0  0  0  0  0  0  0  0  0  0  0  0
   10.3056    2.6158    0.0000 N   0  0  0  0  0  0  0  0  0  0  0  0
   10.3020    1.6194    0.0000 N   0  0  0  0  0  0  0  0  0  0  0  0
   11.0402    0.9500    0.0000 N   0  0  0  0  0  0  0  0  0  0  0  0
   10.8294   -0.0240    0.0000 C   0  0  0  0  0  0  0  0  0  0  0  0
    9.8806   -0.3284    0.0000 C   0  0  0  0  0  0  0  0  0  0  0  0
    9.1426    0.3410    0.0000 C   0  0  0  0  0  0  0  0  0  0  0  0
    9.3532    1.3148    0.0000 C   0  0  0  0  0  0  0  0  0  0  0  0
    4.2648   -0.4590    0.0000 C   0  0  0  0  0  0  0  0  0  0  0  0
    3.2648   -0.4556    0.0000 C   0  0  0  0  0  0  0  0  0  0  0  0
    2.7678    0.4120    0.0000 C   0  0  0  0  0  0  0  0  0  0  0  0
    2.7620   -1.3200    0.0000 C   0  0  0  0  0  0  0  0  0  0  0  0
    3.6264   -1.8228    0.0000 F   0  0  0  0  0  0  0  0  0  0  0  0
    2.7588   -2.3200    0.0000 F   0  0  0  0  0  0  0  0  0  0  0  0
    1.7620   -1.3168    0.0000 F   0  0  0  0  0  0  0  0  0  0  0  0
  1  2  1  0
  2  3  1  0
  3  4  2  0
  4  5  1  0
  6  7  1  0
  7  8  2  0
  8  9  1  0
  9 10  2  0
 10 11  1  0
 12  7  1  0
 11 12  2  0
 11 13  1  0
 13 14  1  0
 14 15  2  0
 15 16  1  0
 16 17  1  0
 17 18  2  0
 18 19  1  0
 19 20  2  0
 21 13  2  0
 21 16  1  0
 20 21  1  0
  5  6  1  0
  5 22  2  0
 22 23  1  0
 24  3  1  0
 23 24  2  0
 23 25  1  0
 25 26  1  0
 25 27  1  0
 25 28  1  0
M  END
>  <compound_chembl_id>  (36) 
CHEMBL360206

>  <assay_id>  (36) 
302524

>  <doc_id>  (36) 
21080

>  <description>  (36) 
Binding affinity for human cyclin-dependent kinase 2

>  <assay_organism>  (36) 
Homo sapiens

>  <assay_chembl_id>  (36) 
CHEMBL827377

>  <aidx>  (36) 
CLD0

>  <pref_name>  (36) 
Cyclin-dependent kinase 2

>  <activity_id>  (36) 
1467414

>  <molregno>  (36) 
313001

>  <standard_relation>  (36) 
=

>  <standard_value>  (36) 
10.

>  <standard_units>  (36) 
nM

>  <standard_flag>  (36) 
1

>  <standard_type>  (36) 
Ki

>  <pchembl_value>  (36) 
8.

>  <src_id (#1)>  (36) 
1

>  <type>  (36) 
Ki

>  <relation>  (36) 
=

>  <value>  (36) 
0.01

>  <units>  (36) 
uM

>  <standard_inchi_key>  (36) 
GBYZMXCPDFNNOB-UHFFFAOYSA-N

>  <canonical_smiles>  (36) 
COc1cc(Nc2nccc(n2)c3cnn4ncccc34)cc(c1)C(F)(F)F

$$$$
CHEMBL365229
     RDKit          2D

 27 30  0  0  0  0  0  0  0  0999 V2000
    3.6416    2.6410    0.0000 F   0  0  0  0  0  0  0  0  0  0  0  0
    2.7738    2.1440    0.0000 C   0  0  0  0  0  0  0  0  0  0  0  0
    2.7772    3.1440    0.0000 F   0  0  0  0  0  0  0  0  0  0  0  0
    1.7738    2.1474    0.0000 F   0  0  0  0  0  0  0  0  0  0  0  0
    3.2708    1.2762    0.0000 C   0  0  0  0  0  0  0  0  0  0  0  0
    2.7678    0.4120    0.0000 C   0  0  0  0  0  0  0  0  0  0  0  0
    3.2648   -0.4556    0.0000 C   0  0  0  0  0  0  0  0  0  0  0  0
    2.7620   -1.3200    0.0000 Br  0  0  0  0  0  0  0  0  0  0  0  0
    4.2648   -0.4590    0.0000 C   0  0  0  0  0  0  0  0  0  0  0  0
    4.7678    0.4052    0.0000 C   0  0  0  0  0  0  0  0  0  0  0  0
    5.7678    0.4018    0.0000 N   0  0  0  0  0  0  0  0  0  0  0  0
    6.2708    1.2660    0.0000 C   0  0  0  0  0  0  0  0  0  0  0  0
    5.7740    2.1338    0.0000 N   0  0  0  0  0  0  0  0  0  0  0  0
    6.2772    2.9980    0.0000 C   0  0  0  0  0  0  0  0  0  0  0  0
    7.2772    2.9944    0.0000 C   0  0  0  0  0  0  0  0  0  0  0  0
    7.7740    2.1266    0.0000 C   0  0  0  0  0  0  0  0  0  0  0  0
    7.2708    1.2624    0.0000 N   0  0  0  0  0  0  0  0  0  0  0  0
    8.7704    2.1230    0.0000 C   0  0  0  0  0  0  0  0  0  0  0  0
    9.3590    2.9270    0.0000 C   0  0  0  0  0  0  0  0  0  0  0  0
   10.3056    2.6158    0.0000 N   0  0  0  0  0  0  0  0  0  0  0  0
   10.3020    1.6194    0.0000 N   0  0  0  0  0  0  0  0  0  0  0  0
   11.0402    0.9500    0.0000 N   0  0  0  0  0  0  0  0  0  0  0  0
   10.8294   -0.0240    0.0000 C   0  0  0  0  0  0  0  0  0  0  0  0
    9.8806   -0.3284    0.0000 C   0  0  0  0  0  0  0  0  0  0  0  0
    9.1426    0.3410    0.0000 C   0  0  0  0  0  0  0  0  0  0  0  0
    9.3532    1.3148    0.0000 C   0  0  0  0  0  0  0  0  0  0  0  0
    4.2708    1.2728    0.0000 C   0  0  0  0  0  0  0  0  0  0  0  0
  1  2  1  0
  2  3  1  0
  2  4  1  0
  2  5  1  0
  5  6  2  0
  6  7  1  0
  7  8  1  0
  7  9  2  0
  9 10  1  0
 11 12  1  0
 12 13  2  0
 13 14  1  0
 14 15  2  0
 15 16  1  0
 17 12  1  0
 16 17  2  0
 16 18  1  0
 18 19  1  0
 19 20  2  0
 20 21  1  0
 21 22  1  0
 22 23  2  0
 23 24  1  0
 24 25  2  0
 26 18  2  0
 26 21  1  0
 25 26  1  0
 10 11  1  0
 27  5  1  0
 10 27  2  0
M  END
>  <compound_chembl_id>  (37) 
CHEMBL365229

>  <assay_id>  (37) 
302524

>  <doc_id>  (37) 
21080

>  <description>  (37) 
Binding affinity for human cyclin-dependent kinase 2

>  <assay_organism>  (37) 
Homo sapiens

>  <assay_chembl_id>  (37) 
CHEMBL827377

>  <aidx>  (37) 
CLD0

>  <pref_name>  (37) 
Cyclin-dependent kinase 2

>  <activity_id>  (37) 
1467419

>  <molregno>  (37) 
313298

>  <standard_relation>  (37) 
=

>  <standard_value>  (37) 
10.

>  <standard_units>  (37) 
nM

>  <standard_flag>  (37) 
1

>  <standard_type>  (37) 
Ki

>  <pchembl_value>  (37) 
8.

>  <src_id (#1)>  (37) 
1

>  <type>  (37) 
Ki

>  <relation>  (37) 
=

>  <value>  (37) 
0.01

>  <units>  (37) 
uM

>  <standard_inchi_key>  (37) 
LVHOFIUXRMSCFN-UHFFFAOYSA-N

>  <canonical_smiles>  (37) 
FC(F)(F)c1cc(Br)cc(Nc2nccc(n2)c3cnn4ncccc34)c1

$$$$
CHEMBL184510
     RDKit          2D

 24 27  0  0  0  0  0  0  0  0999 V2000
    2.7738    2.1440    0.0000 F   0  0  0  0  0  0  0  0  0  0  0  0
    3.2708    1.2762    0.0000 C   0  0  0  0  0  0  0  0  0  0  0  0
    2.7678    0.4120    0.0000 C   0  0  0  0  0  0  0  0  0  0  0  0
    3.2648   -0.4556    0.0000 C   0  0  0  0  0  0  0  0  0  0  0  0
    2.7620   -1.3200    0.0000 F   0  0  0  0  0  0  0  0  0  0  0  0
    4.2648   -0.4590    0.0000 C   0  0  0  0  0  0  0  0  0  0  0  0
    4.7678    0.4052    0.0000 C   0  0  0  0  0  0  0  0  0  0  0  0
    5.7678    0.4018    0.0000 N   0  0  0  0  0  0  0  0  0  0  0  0
    6.2708    1.2660    0.0000 C   0  0  0  0  0  0  0  0  0  0  0  0
    5.7740    2.1338    0.0000 N   0  0  0  0  0  0  0  0  0  0  0  0
    6.2772    2.9980    0.0000 C   0  0  0  0  0  0  0  0  0  0  0  0
    7.2772    2.9944    0.0000 C   0  0  0  0  0  0  0  0  0  0  0  0
    7.7740    2.1266    0.0000 C   0  0  0  0  0  0  0  0  0  0  0  0
    7.2708    1.2624    0.0000 N   0  0  0  0  0  0  0  0  0  0  0  0
    8.7704    2.1230    0.0000 C   0  0  0  0  0  0  0  0  0  0  0  0
    9.3590    2.9270    0.0000 C   0  0  0  0  0  0  0  0  0  0  0  0
   10.3056    2.6158    0.0000 N   0  0  0  0  0  0  0  0  0  0  0  0
   10.3020    1.6194    0.0000 N   0  0  0  0  0  0  0  0  0  0  0  0
   11.0402    0.9500    0.0000 N   0  0  0  0  0  0  0  0  0  0  0  0
   10.8294   -0.0240    0.0000 C   0  0  0  0  0  0  0  0  0  0  0  0
    9.8806   -0.3284    0.0000 C   0  0  0  0  0  0  0  0  0  0  0  0
    9.1426    0.3410    0.0000 C   0  0  0  0  0  0  0  0  0  0  0  0
    9.3532    1.3148    0.0000 C   0  0  0  0  0  0  0  0  0  0  0  0
    4.2708    1.2728    0.0000 C   0  0  0  0  0  0  0  0  0  0  0  0
  1  2  1  0
  2  3  2  0
  3  4  1  0
  4  5  1  0
  4  6  2  0
  6  7  1  0
  8  9  1  0
  9 10  2  0
 10 11  1  0
 11 12  2  0
 12 13  1  0
 14  9  1  0
 13 14  2  0
 13 15  1  0
 15 16  1  0
 16 17  2  0
 17 18  1  0
 18 19  1  0
 19 20  2  0
 20 21  1  0
 21 22  2  0
 23 15  2  0
 23 18  1  0
 22 23  1  0
  7  8  1  0
 24  2  1  0
  7 24  2  0
M  END
>  <compound_chembl_id>  (38) 
CHEMBL184510

>  <assay_id>  (38) 
302524

>  <doc_id>  (38) 
21080

>  <description>  (38) 
Binding affinity for human cyclin-dependent kinase 2

>  <assay_organism>  (38) 
Homo sapiens

>  <assay_chembl_id>  (38) 
CHEMBL827377

>  <aidx>  (38) 
CLD0

>  <pref_name>  (38) 
Cyclin-dependent kinase 2

>  <activity_id>  (38) 
1467422

>  <molregno>  (38) 
313299

>  <standard_relation>  (38) 
=

>  <standard_value>  (38) 
1.

>  <standard_units>  (38) 
nM

>  <standard_flag>  (38) 
1

>  <standard_type>  (38) 
Ki

>  <pchembl_value>  (38) 
9.

>  <src_id (#1)>  (38) 
1

>  <type>  (38) 
Ki

>  <relation>  (38) 
=

>  <value>  (38) 
0.001

>  <units>  (38) 
uM

>  <standard_inchi_key>  (38) 
FZHZYQRQDGJIBK-UHFFFAOYSA-N

>  <canonical_smiles>  (38) 
Fc1cc(F)cc(Nc2nccc(n2)c3cnn4ncccc34)c1

$$$$
CHEMBL361697
     RDKit          2D

 24 27  0  0  0  0  0  0  0  0999 V2000
    2.7738    2.1440    0.0000 Cl  0  0  0  0  0  0  0  0  0  0  0  0
    3.2708    1.2762    0.0000 C   0  0  0  0  0  0  0  0  0  0  0  0
    2.7678    0.4120    0.0000 C   0  0  0  0  0  0  0  0  0  0  0  0
    3.2648   -0.4556    0.0000 C   0  0  0  0  0  0  0  0  0  0  0  0
    2.7620   -1.3200    0.0000 Cl  0  0  0  0  0  0  0  0  0  0  0  0
    4.2648   -0.4590    0.0000 C   0  0  0  0  0  0  0  0  0  0  0  0
    4.7678    0.4052    0.0000 C   0  0  0  0  0  0  0  0  0  0  0  0
    5.7678    0.4018    0.0000 N   0  0  0  0  0  0  0  0  0  0  0  0
    6.2708    1.2660    0.0000 C   0  0  0  0  0  0  0  0  0  0  0  0
    5.7740    2.1338    0.0000 N   0  0  0  0  0  0  0  0  0  0  0  0
    6.2772    2.9980    0.0000 C   0  0  0  0  0  0  0  0  0  0  0  0
    7.2772    2.9944    0.0000 C   0  0  0  0  0  0  0  0  0  0  0  0
    7.7740    2.1266    0.0000 C   0  0  0  0  0  0  0  0  0  0  0  0
    7.2708    1.2624    0.0000 N   0  0  0  0  0  0  0  0  0  0  0  0
    8.7704    2.1230    0.0000 C   0  0  0  0  0  0  0  0  0  0  0  0
    9.3590    2.9270    0.0000 C   0  0  0  0  0  0  0  0  0  0  0  0
   10.3056    2.6158    0.0000 N   0  0  0  0  0  0  0  0  0  0  0  0
   10.3020    1.6194    0.0000 N   0  0  0  0  0  0  0  0  0  0  0  0
   11.0402    0.9500    0.0000 N   0  0  0  0  0  0  0  0  0  0  0  0
   10.8294   -0.0240    0.0000 C   0  0  0  0  0  0  0  0  0  0  0  0
    9.8806   -0.3284    0.0000 C   0  0  0  0  0  0  0  0  0  0  0  0
    9.1426    0.3410    0.0000 C   0  0  0  0  0  0  0  0  0  0  0  0
    9.3532    1.3148    0.0000 C   0  0  0  0  0  0  0  0  0  0  0  0
    4.2708    1.2728    0.0000 C   0  0  0  0  0  0  0  0  0  0  0  0
  1  2  1  0
  2  3  2  0
  3  4  1  0
  4  5  1  0
  4  6  2  0
  6  7  1  0
  8  9  1  0
  9 10  2  0
 10 11  1  0
 11 12  2  0
 12 13  1  0
 14  9  1  0
 13 14  2  0
 13 15  1  0
 15 16  1  0
 16 17  2  0
 17 18  1  0
 18 19  1  0
 19 20  2  0
 20 21  1  0
 21 22  2  0
 23 15  2  0
 23 18  1  0
 22 23  1  0
  7  8  1  0
 24  2  1  0
  7 24  2  0
M  END
>  <compound_chembl_id>  (39) 
CHEMBL361697

>  <assay_id>  (39) 
302524

>  <doc_id>  (39) 
21080

>  <description>  (39) 
Binding affinity for human cyclin-dependent kinase 2

>  <assay_organism>  (39) 
Homo sapiens

>  <assay_chembl_id>  (39) 
CHEMBL827377

>  <aidx>  (39) 
CLD0

>  <pref_name>  (39) 
Cyclin-dependent kinase 2

>  <activity_id>  (39) 
1467427

>  <molregno>  (39) 
313071

>  <standard_relation>  (39) 
=

>  <standard_value>  (39) 
310.

>  <standard_units>  (39) 
nM

>  <standard_flag>  (39) 
1

>  <standard_type>  (39) 
Ki

>  <pchembl_value>  (39) 
6.51

>  <src_id (#1)>  (39) 
1

>  <type>  (39) 
Ki

>  <relation>  (39) 
=

>  <value>  (39) 
0.31

>  <units>  (39) 
uM

>  <standard_inchi_key>  (39) 
KIJWMPSSOUHQTQ-UHFFFAOYSA-N

>  <canonical_smiles>  (39) 
Clc1cc(Cl)cc(Nc2nccc(n2)c3cnn4ncccc34)c1

$$$$
CHEMBL186101
     RDKit          2D

 24 27  0  0  0  0  0  0  0  0999 V2000
    2.7738    2.1440    0.0000 C   0  0  0  0  0  0  0  0  0  0  0  0
    3.2708    1.2762    0.0000 C   0  0  0  0  0  0  0  0  0  0  0  0
    2.7678    0.4120    0.0000 C   0  0  0  0  0  0  0  0  0  0  0  0
    3.2648   -0.4556    0.0000 C   0  0  0  0  0  0  0  0  0  0  0  0
    2.7620   -1.3200    0.0000 C   0  0  0  0  0  0  0  0  0  0  0  0
    4.2648   -0.4590    0.0000 C   0  0  0  0  0  0  0  0  0  0  0  0
    4.7678    0.4052    0.0000 C   0  0  0  0  0  0  0  0  0  0  0  0
    5.7678    0.4018    0.0000 N   0  0  0  0  0  0  0  0  0  0  0  0
    6.2708    1.2660    0.0000 C   0  0  0  0  0  0  0  0  0  0  0  0
    5.7740    2.1338    0.0000 N   0  0  0  0  0  0  0  0  0  0  0  0
    6.2772    2.9980    0.0000 C   0  0  0  0  0  0  0  0  0  0  0  0
    7.2772    2.9944    0.0000 C   0  0  0  0  0  0  0  0  0  0  0  0
    7.7740    2.1266    0.0000 C   0  0  0  0  0  0  0  0  0  0  0  0
    7.2708    1.2624    0.0000 N   0  0  0  0  0  0  0  0  0  0  0  0
    8.7704    2.1230    0.0000 C   0  0  0  0  0  0  0  0  0  0  0  0
    9.3590    2.9270    0.0000 C   0  0  0  0  0  0  0  0  0  0  0  0
   10.3056    2.6158    0.0000 N   0  0  0  0  0  0  0  0  0  0  0  0
   10.3020    1.6194    0.0000 N   0  0  0  0  0  0  0  0  0  0  0  0
   11.0402    0.9500    0.0000 N   0  0  0  0  0  0  0  0  0  0  0  0
   10.8294   -0.0240    0.0000 C   0  0  0  0  0  0  0  0  0  0  0  0
    9.8806   -0.3284    0.0000 C   0  0  0  0  0  0  0  0  0  0  0  0
    9.1426    0.3410    0.0000 C   0  0  0  0  0  0  0  0  0  0  0  0
    9.3532    1.3148    0.0000 C   0  0  0  0  0  0  0  0  0  0  0  0
    4.2708    1.2728    0.0000 C   0  0  0  0  0  0  0  0  0  0  0  0
  1  2  1  0
  2  3  2  0
  3  4  1  0
  4  5  1  0
  4  6  2  0
  6  7  1  0
  8  9  1  0
  9 10  2  0
 10 11  1  0
 11 12  2  0
 12 13  1  0
 14  9  1  0
 13 14  2  0
 13 15  1  0
 15 16  1  0
 16 17  2  0
 17 18  1  0
 18 19  1  0
 19 20  2  0
 20 21  1  0
 21 22  2  0
 23 15  2  0
 23 18  1  0
 22 23  1  0
  7  8  1  0
 24  2  1  0
  7 24  2  0
M  END
>  <compound_chembl_id>  (40) 
CHEMBL186101

>  <assay_id>  (40) 
302524

>  <doc_id>  (40) 
21080

>  <description>  (40) 
Binding affinity for human cyclin-dependent kinase 2

>  <assay_organism>  (40) 
Homo sapiens

>  <assay_chembl_id>  (40) 
CHEMBL827377

>  <aidx>  (40) 
CLD0

>  <pref_name>  (40) 
Cyclin-dependent kinase 2

>  <activity_id>  (40) 
1467432

>  <molregno>  (40) 
313101

>  <standard_relation>  (40) 
=

>  <standard_value>  (40) 
3.

>  <standard_units>  (40) 
nM

>  <standard_flag>  (40) 
1

>  <standard_type>  (40) 
Ki

>  <pchembl_value>  (40) 
8.52

>  <src_id (#1)>  (40) 
1

>  <type>  (40) 
Ki

>  <relation>  (40) 
=

>  <value>  (40) 
0.003

>  <units>  (40) 
uM

>  <standard_inchi_key>  (40) 
WKITVSVNTNNVLF-UHFFFAOYSA-N

>  <canonical_smiles>  (40) 
Cc1cc(C)cc(Nc2nccc(n2)c3cnn4ncccc34)c1

$$$$
CHEMBL187750
     RDKit          2D

 27 30  0  0  0  0  0  0  0  0999 V2000
   11.5676   -0.6934    0.0000 O   0  0  0  0  0  0  0  0  0  0  0  0
   10.8294   -0.0240    0.0000 C   0  0  0  0  0  0  0  0  0  0  0  0
    9.8806   -0.3284    0.0000 C   0  0  0  0  0  0  0  0  0  0  0  0
    9.1426    0.3410    0.0000 C   0  0  0  0  0  0  0  0  0  0  0  0
    9.3532    1.3148    0.0000 C   0  0  0  0  0  0  0  0  0  0  0  0
    8.7704    2.1230    0.0000 C   0  0  0  0  0  0  0  0  0  0  0  0
    9.3590    2.9270    0.0000 C   0  0  0  0  0  0  0  0  0  0  0  0
   10.3056    2.6158    0.0000 N   0  0  0  0  0  0  0  0  0  0  0  0
   10.3020    1.6194    0.0000 N   0  0  0  0  0  0  0  0  0  0  0  0
   11.0402    0.9500    0.0000 N   0  0  0  0  0  0  0  0  0  0  0  0
    7.7740    2.1266    0.0000 C   0  0  0  0  0  0  0  0  0  0  0  0
    7.2772    2.9944    0.0000 C   0  0  0  0  0  0  0  0  0  0  0  0
    6.2772    2.9980    0.0000 C   0  0  0  0  0  0  0  0  0  0  0  0
    5.7740    2.1338    0.0000 N   0  0  0  0  0  0  0  0  0  0  0  0
    6.2708    1.2660    0.0000 C   0  0  0  0  0  0  0  0  0  0  0  0
    5.7678    0.4018    0.0000 N   0  0  0  0  0  0  0  0  0  0  0  0
    4.7678    0.4052    0.0000 C   0  0  0  0  0  0  0  0  0  0  0  0
    4.2708    1.2728    0.0000 C   0  0  0  0  0  0  0  0  0  0  0  0
    3.2708    1.2762    0.0000 C   0  0  0  0  0  0  0  0  0  0  0  0
    2.7678    0.4120    0.0000 C   0  0  0  0  0  0  0  0  0  0  0  0
    3.2648   -0.4556    0.0000 C   0  0  0  0  0  0  0  0  0  0  0  0
    4.2648   -0.4590    0.0000 C   0  0  0  0  0  0  0  0  0  0  0  0
    2.7620   -1.3200    0.0000 C   0  0  0  0  0  0  0  0  0  0  0  0
    3.6264   -1.8228    0.0000 F   0  0  0  0  0  0  0  0  0  0  0  0
    2.7588   -2.3200    0.0000 F   0  0  0  0  0  0  0  0  0  0  0  0
    1.7620   -1.3168    0.0000 F   0  0  0  0  0  0  0  0  0  0  0  0
    7.2708    1.2624    0.0000 N   0  0  0  0  0  0  0  0  0  0  0  0
  1  2  1  0
  2  3  1  0
  3  4  2  0
  4  5  1  0
  5  6  2  0
  7  8  2  0
  9  5  1  0
  8  9  1  0
 10  2  2  0
  9 10  1  0
  6  7  1  0
  6 11  1  0
 11 12  2  0
 12 13  1  0
 13 14  2  0
 14 15  1  0
 16 17  1  0
 17 18  2  0
 18 19  1  0
 19 20  2  0
 20 21  1  0
 22 17  1  0
 21 22  2  0
 21 23  1  0
 23 24  1  0
 23 25  1  0
 23 26  1  0
 15 16  1  0
 27 11  1  0
 15 27  2  0
M  END
>  <compound_chembl_id>  (41) 
CHEMBL187750

>  <assay_id>  (41) 
302524

>  <doc_id>  (41) 
21080

>  <description>  (41) 
Binding affinity for human cyclin-dependent kinase 2

>  <assay_organism>  (41) 
Homo sapiens

>  <assay_chembl_id>  (41) 
CHEMBL827377

>  <aidx>  (41) 
CLD0

>  <pref_name>  (41) 
Cyclin-dependent kinase 2

>  <activity_id>  (41) 
1467437

>  <molregno>  (41) 
312883

>  <standard_relation>  (41) 
=

>  <standard_value>  (41) 
8.

>  <standard_units>  (41) 
nM

>  <standard_flag>  (41) 
1

>  <standard_type>  (41) 
Ki

>  <pchembl_value>  (41) 
8.1

>  <src_id (#1)>  (41) 
1

>  <type>  (41) 
Ki

>  <relation>  (41) 
=

>  <value>  (41) 
0.008

>  <units>  (41) 
uM

>  <standard_inchi_key>  (41) 
FEQLPEIKSCUTRT-UHFFFAOYSA-N

>  <canonical_smiles>  (41) 
Oc1ccc2c(cnn2n1)c3ccnc(Nc4cccc(c4)C(F)(F)F)n3

$$$$
CHEMBL189235
     RDKit          2D

 28 31  0  0  0  0  0  0  0  0999 V2000
   12.5198   -0.3878    0.0000 C   0  0  0  0  0  0  0  0  0  0  0  0
   11.5676   -0.6934    0.0000 O   0  0  0  0  0  0  0  0  0  0  0  0
   10.8294   -0.0240    0.0000 C   0  0  0  0  0  0  0  0  0  0  0  0
    9.8806   -0.3284    0.0000 C   0  0  0  0  0  0  0  0  0  0  0  0
    9.1426    0.3410    0.0000 C   0  0  0  0  0  0  0  0  0  0  0  0
    9.3532    1.3148    0.0000 C   0  0  0  0  0  0  0  0  0  0  0  0
    8.7704    2.1230    0.0000 C   0  0  0  0  0  0  0  0  0  0  0  0
    9.3590    2.9270    0.0000 C   0  0  0  0  0  0  0  0  0  0  0  0
   10.3056    2.6158    0.0000 N   0  0  0  0  0  0  0  0  0  0  0  0
   10.3020    1.6194    0.0000 N   0  0  0  0  0  0  0  0  0  0  0  0
   11.0402    0.9500    0.0000 N   0  0  0  0  0  0  0  0  0  0  0  0
    7.7740    2.1266    0.0000 C   0  0  0  0  0  0  0  0  0  0  0  0
    7.2772    2.9944    0.0000 C   0  0  0  0  0  0  0  0  0  0  0  0
    6.2772    2.9980    0.0000 C   0  0  0  0  0  0  0  0  0  0  0  0
    5.7740    2.1338    0.0000 N   0  0  0  0  0  0  0  0  0  0  0  0
    6.2708    1.2660    0.0000 C   0  0  0  0  0  0  0  0  0  0  0  0
    5.7678    0.4018    0.0000 N   0  0  0  0  0  0  0  0  0  0  0  0
    4.7678    0.4052    0.0000 C   0  0  0  0  0  0  0  0  0  0  0  0
    4.2708    1.2728    0.0000 C   0  0  0  0  0  0  0  0  0  0  0  0
    3.2708    1.2762    0.0000 C   0  0  0  0  0  0  0  0  0  0  0  0
    2.7678    0.4120    0.0000 C   0  0  0  0  0  0  0  0  0  0  0  0
    3.2648   -0.4556    0.0000 C   0  0  0  0  0  0  0  0  0  0  0  0
    4.2648   -0.4590    0.0000 C   0  0  0  0  0  0  0  0  0  0  0  0
    2.7620   -1.3200    0.0000 C   0  0  0  0  0  0  0  0  0  0  0  0
    3.6264   -1.8228    0.0000 F   0  0  0  0  0  0  0  0  0  0  0  0
    2.7588   -2.3200    0.0000 F   0  0  0  0  0  0  0  0  0  0  0  0
    1.7620   -1.3168    0.0000 F   0  0  0  0  0  0  0  0  0  0  0  0
    7.2708    1.2624    0.0000 N   0  0  0  0  0  0  0  0  0  0  0  0
  1  2  1  0
  2  3  1  0
  3  4  1  0
  4  5  2  0
  5  6  1  0
  6  7  2  0
  8  9  2  0
 10  6  1  0
  9 10  1  0
 11  3  2  0
 10 11  1  0
  7  8  1  0
  7 12  1  0
 12 13  2  0
 13 14  1  0
 14 15  2  0
 15 16  1  0
 17 18  1  0
 18 19  2  0
 19 20  1  0
 20 21  2  0
 21 22  1  0
 23 18  1  0
 22 23  2  0
 22 24  1  0
 24 25  1  0
 24 26  1  0
 24 27  1  0
 16 17  1  0
 28 12  1  0
 16 28  2  0
M  END
>  <compound_chembl_id>  (42) 
CHEMBL189235

>  <assay_id>  (42) 
302524

>  <doc_id>  (42) 
21080

>  <description>  (42) 
Binding affinity for human cyclin-dependent kinase 2

>  <assay_organism>  (42) 
Homo sapiens

>  <assay_chembl_id>  (42) 
CHEMBL827377

>  <aidx>  (42) 
CLD0

>  <pref_name>  (42) 
Cyclin-dependent kinase 2

>  <activity_id>  (42) 
1467540

>  <molregno>  (42) 
313167

>  <standard_relation>  (42) 
=

>  <standard_value>  (42) 
160.

>  <standard_units>  (42) 
nM

>  <standard_flag>  (42) 
1

>  <standard_type>  (42) 
Ki

>  <pchembl_value>  (42) 
6.8

>  <src_id (#1)>  (42) 
1

>  <type>  (42) 
Ki

>  <relation>  (42) 
=

>  <value>  (42) 
0.16

>  <units>  (42) 
uM

>  <standard_inchi_key>  (42) 
IGMVMVBDVWUCTC-UHFFFAOYSA-N

>  <canonical_smiles>  (42) 
COc1ccc2c(cnn2n1)c3ccnc(Nc4cccc(c4)C(F)(F)F)n3

$$$$
CHEMBL183993
     RDKit          2D

 29 32  0  0  0  0  0  0  0  0999 V2000
   13.2658   -1.0617    0.0000 C   0  0  0  0  0  0  0  0  0  0  0  0
   12.5243   -0.3917    0.0000 C   0  0  0  0  0  0  0  0  0  0  0  0
   11.5734   -0.6989    0.0000 O   0  0  0  0  0  0  0  0  0  0  0  0
   10.8336   -0.0293    0.0000 C   0  0  0  0  0  0  0  0  0  0  0  0
    9.8822   -0.3325    0.0000 C   0  0  0  0  0  0  0  0  0  0  0  0
    9.1407    0.3365    0.0000 C   0  0  0  0  0  0  0  0  0  0  0  0
    9.3525    1.3144    0.0000 C   0  0  0  0  0  0  0  0  0  0  0  0
    8.7675    2.1244    0.0000 C   0  0  0  0  0  0  0  0  0  0  0  0
    9.3593    2.9304    0.0000 C   0  0  0  0  0  0  0  0  0  0  0  0
   10.3087    2.6195    0.0000 N   0  0  0  0  0  0  0  0  0  0  0  0
   10.3047    1.6189    0.0000 N   0  0  0  0  0  0  0  0  0  0  0  0
   11.0456    0.9483    0.0000 N   0  0  0  0  0  0  0  0  0  0  0  0
    7.7738    2.1267    0.0000 C   0  0  0  0  0  0  0  0  0  0  0  0
    7.2771    2.9942    0.0000 C   0  0  0  0  0  0  0  0  0  0  0  0
    6.2770    2.9983    0.0000 C   0  0  0  0  0  0  0  0  0  0  0  0
    5.7741    2.1337    0.0000 N   0  0  0  0  0  0  0  0  0  0  0  0
    6.2708    1.2662    0.0000 C   0  0  0  0  0  0  0  0  0  0  0  0
    5.7684    0.4015    0.0000 N   0  0  0  0  0  0  0  0  0  0  0  0
    4.7674    0.4053    0.0000 C   0  0  0  0  0  0  0  0  0  0  0  0
    4.2709    1.2731    0.0000 C   0  0  0  0  0  0  0  0  0  0  0  0
    3.2703    1.2763    0.0000 C   0  0  0  0  0  0  0  0  0  0  0  0
    2.7682    0.4118    0.0000 C   0  0  0  0  0  0  0  0  0  0  0  0
    3.2647   -0.4559    0.0000 C   0  0  0  0  0  0  0  0  0  0  0  0
    4.2653   -0.4592    0.0000 C   0  0  0  0  0  0  0  0  0  0  0  0
    2.7630   -1.3202    0.0000 C   0  0  0  0  0  0  0  0  0  0  0  0
    3.6273   -1.8231    0.0000 F   0  0  0  0  0  0  0  0  0  0  0  0
    2.7596   -2.3202    0.0000 F   0  0  0  0  0  0  0  0  0  0  0  0
    1.7629   -1.3169    0.0000 F   0  0  0  0  0  0  0  0  0  0  0  0
    7.2710    1.2621    0.0000 N   0  0  0  0  0  0  0  0  0  0  0  0
  1  2  1  0
  2  3  1  0
  3  4  1  0
  4  5  1  0
  5  6  2  0
  6  7  1  0
  7  8  2  0
  9 10  2  0
 11  7  1  0
 10 11  1  0
 12  4  2  0
 11 12  1  0
  8  9  1  0
  8 13  1  0
 13 14  2  0
 14 15  1  0
 15 16  2  0
 16 17  1  0
 18 19  1  0
 19 20  2  0
 20 21  1  0
 21 22  2  0
 22 23  1  0
 24 19  1  0
 23 24  2  0
 23 25  1  0
 25 26  1  0
 25 27  1  0
 25 28  1  0
 17 18  1  0
 29 13  1  0
 17 29  2  0
M  END
>  <compound_chembl_id>  (43) 
CHEMBL183993

>  <assay_id>  (43) 
302524

>  <doc_id>  (43) 
21080

>  <description>  (43) 
Binding affinity for human cyclin-dependent kinase 2

>  <assay_organism>  (43) 
Homo sapiens

>  <assay_chembl_id>  (43) 
CHEMBL827377

>  <aidx>  (43) 
CLD0

>  <pref_name>  (43) 
Cyclin-dependent kinase 2

>  <activity_id>  (43) 
1467543

>  <molregno>  (43) 
312977

>  <standard_relation>  (43) 
=

>  <standard_value>  (43) 
1990.

>  <standard_units>  (43) 
nM

>  <standard_flag>  (43) 
1

>  <standard_type>  (43) 
Ki

>  <pchembl_value>  (43) 
5.7

>  <src_id (#1)>  (43) 
1

>  <type>  (43) 
Ki

>  <relation>  (43) 
=

>  <value>  (43) 
1.99

>  <units>  (43) 
uM

>  <standard_inchi_key>  (43) 
WNKSRDBBYKDORB-UHFFFAOYSA-N

>  <canonical_smiles>  (43) 
CCOc1ccc2c(cnn2n1)c3ccnc(Nc4cccc(c4)C(F)(F)F)n3

$$$$
CHEMBL187287
     RDKit          2D

 30 33  0  0  0  0  0  0  0  0999 V2000
   14.2157   -0.7539    0.0000 C   0  0  0  0  0  0  0  0  0  0  0  0
   13.2647   -1.0617    0.0000 C   0  0  0  0  0  0  0  0  0  0  0  0
   12.5235   -0.3920    0.0000 C   0  0  0  0  0  0  0  0  0  0  0  0
   11.5730   -0.6989    0.0000 O   0  0  0  0  0  0  0  0  0  0  0  0
   10.8336   -0.0293    0.0000 C   0  0  0  0  0  0  0  0  0  0  0  0
    9.8822   -0.3325    0.0000 C   0  0  0  0  0  0  0  0  0  0  0  0
    9.1407    0.3365    0.0000 C   0  0  0  0  0  0  0  0  0  0  0  0
    9.3525    1.3144    0.0000 C   0  0  0  0  0  0  0  0  0  0  0  0
    8.7675    2.1244    0.0000 C   0  0  0  0  0  0  0  0  0  0  0  0
    9.3593    2.9304    0.0000 C   0  0  0  0  0  0  0  0  0  0  0  0
   10.3087    2.6195    0.0000 N   0  0  0  0  0  0  0  0  0  0  0  0
   10.3047    1.6189    0.0000 N   0  0  0  0  0  0  0  0  0  0  0  0
   11.0456    0.9483    0.0000 N   0  0  0  0  0  0  0  0  0  0  0  0
    7.7738    2.1267    0.0000 C   0  0  0  0  0  0  0  0  0  0  0  0
    7.2771    2.9942    0.0000 C   0  0  0  0  0  0  0  0  0  0  0  0
    6.2770    2.9983    0.0000 C   0  0  0  0  0  0  0  0  0  0  0  0
    5.7741    2.1337    0.0000 N   0  0  0  0  0  0  0  0  0  0  0  0
    6.2708    1.2662    0.0000 C   0  0  0  0  0  0  0  0  0  0  0  0
    5.7684    0.4015    0.0000 N   0  0  0  0  0  0  0  0  0  0  0  0
    4.7674    0.4053    0.0000 C   0  0  0  0  0  0  0  0  0  0  0  0
    4.2709    1.2730    0.0000 C   0  0  0  0  0  0  0  0  0  0  0  0
    3.2703    1.2763    0.0000 C   0  0  0  0  0  0  0  0  0  0  0  0
    2.7682    0.4118    0.0000 C   0  0  0  0  0  0  0  0  0  0  0  0
    3.2647   -0.4560    0.0000 C   0  0  0  0  0  0  0  0  0  0  0  0
    4.2653   -0.4592    0.0000 C   0  0  0  0  0  0  0  0  0  0  0  0
    2.7630   -1.3202    0.0000 C   0  0  0  0  0  0  0  0  0  0  0  0
    3.6273   -1.8231    0.0000 F   0  0  0  0  0  0  0  0  0  0  0  0
    2.7596   -2.3202    0.0000 F   0  0  0  0  0  0  0  0  0  0  0  0
    1.7629   -1.3169    0.0000 F   0  0  0  0  0  0  0  0  0  0  0  0
    7.2710    1.2621    0.0000 N   0  0  0  0  0  0  0  0  0  0  0  0
  1  2  1  0
  2  3  1  0
  3  4  1  0
  4  5  1  0
  5  6  1  0
  6  7  2  0
  7  8  1  0
  8  9  2  0
 10 11  2  0
 12  8  1  0
 11 12  1  0
 13  5  2  0
 12 13  1  0
  9 10  1  0
  9 14  1  0
 14 15  2  0
 15 16  1  0
 16 17  2  0
 17 18  1  0
 19 20  1  0
 20 21  2  0
 21 22  1  0
 22 23  2  0
 23 24  1  0
 25 20  1  0
 24 25  2  0
 24 26  1  0
 26 27  1  0
 26 28  1  0
 26 29  1  0
 18 19  1  0
 30 14  1  0
 18 30  2  0
M  END
>  <compound_chembl_id>  (44) 
CHEMBL187287

>  <assay_id>  (44) 
302524

>  <doc_id>  (44) 
21080

>  <description>  (44) 
Binding affinity for human cyclin-dependent kinase 2

>  <assay_organism>  (44) 
Homo sapiens

>  <assay_chembl_id>  (44) 
CHEMBL827377

>  <aidx>  (44) 
CLD0

>  <pref_name>  (44) 
Cyclin-dependent kinase 2

>  <activity_id>  (44) 
1467546

>  <molregno>  (44) 
313303

>  <standard_relation>  (44) 
=

>  <standard_value>  (44) 
1260.

>  <standard_units>  (44) 
nM

>  <standard_flag>  (44) 
1

>  <standard_type>  (44) 
Ki

>  <pchembl_value>  (44) 
5.9

>  <src_id (#1)>  (44) 
1

>  <type>  (44) 
Ki

>  <relation>  (44) 
=

>  <value>  (44) 
1.26

>  <units>  (44) 
uM

>  <standard_inchi_key>  (44) 
ZNDZYFSDFYUJHS-UHFFFAOYSA-N

>  <canonical_smiles>  (44) 
CCCOc1ccc2c(cnn2n1)c3ccnc(Nc4cccc(c4)C(F)(F)F)n3

$$$$
CHEMBL188312
     RDKit          2D

 26 29  0  0  0  0  0  0  0  0999 V2000
    1.7738    2.1474    0.0000 C   0  0  0  0  0  0  0  0  0  0  0  0
    2.7738    2.1440    0.0000 O   0  0  0  0  0  0  0  0  0  0  0  0
    3.2708    1.2762    0.0000 C   0  0  0  0  0  0  0  0  0  0  0  0
    2.7678    0.4120    0.0000 C   0  0  0  0  0  0  0  0  0  0  0  0
    3.2648   -0.4556    0.0000 C   0  0  0  0  0  0  0  0  0  0  0  0
    4.2648   -0.4590    0.0000 C   0  0  0  0  0  0  0  0  0  0  0  0
    4.7678    0.4052    0.0000 C   0  0  0  0  0  0  0  0  0  0  0  0
    5.7678    0.4018    0.0000 N   0  0  0  0  0  0  0  0  0  0  0  0
    6.2708    1.2660    0.0000 C   0  0  0  0  0  0  0  0  0  0  0  0
    5.7740    2.1338    0.0000 N   0  0  0  0  0  0  0  0  0  0  0  0
    6.2772    2.9980    0.0000 C   0  0  0  0  0  0  0  0  0  0  0  0
    7.2772    2.9944    0.0000 C   0  0  0  0  0  0  0  0  0  0  0  0
    7.7740    2.1266    0.0000 C   0  0  0  0  0  0  0  0  0  0  0  0
    7.2708    1.2624    0.0000 N   0  0  0  0  0  0  0  0  0  0  0  0
    8.7704    2.1230    0.0000 C   0  0  0  0  0  0  0  0  0  0  0  0
    9.3590    2.9270    0.0000 C   0  0  0  0  0  0  0  0  0  0  0  0
   10.3056    2.6158    0.0000 N   0  0  0  0  0  0  0  0  0  0  0  0
   10.3020    1.6194    0.0000 N   0  0  0  0  0  0  0  0  0  0  0  0
   11.0402    0.9500    0.0000 N   0  0  0  0  0  0  0  0  0  0  0  0
   10.8294   -0.0240    0.0000 C   0  0  0  0  0  0  0  0  0  0  0  0
   11.5676   -0.6934    0.0000 O   0  0  0  0  0  0  0  0  0  0  0  0
   12.5198   -0.3878    0.0000 C   0  0  0  0  0  0  0  0  0  0  0  0
    9.8806   -0.3284    0.0000 C   0  0  0  0  0  0  0  0  0  0  0  0
    9.1426    0.3410    0.0000 C   0  0  0  0  0  0  0  0  0  0  0  0
    9.3532    1.3148    0.0000 C   0  0  0  0  0  0  0  0  0  0  0  0
    4.2708    1.2728    0.0000 C   0  0  0  0  0  0  0  0  0  0  0  0
  1  2  1  0
  2  3  1  0
  3  4  2  0
  4  5  1  0
  5  6  2  0
  6  7  1  0
  8  9  1  0
  9 10  2  0
 10 11  1  0
 11 12  2  0
 12 13  1  0
 14  9  1  0
 13 14  2  0
 13 15  1  0
 15 16  1  0
 16 17  2  0
 17 18  1  0
 18 19  1  0
 19 20  2  0
 21 22  1  0
 20 21  1  0
 20 23  1  0
 23 24  2  0
 25 15  2  0
 25 18  1  0
 24 25  1  0
  7  8  1  0
 26  3  1  0
  7 26  2  0
M  END
>  <compound_chembl_id>  (45) 
CHEMBL188312

>  <assay_id>  (45) 
302524

>  <doc_id>  (45) 
21080

>  <description>  (45) 
Binding affinity for human cyclin-dependent kinase 2

>  <assay_organism>  (45) 
Homo sapiens

>  <assay_chembl_id>  (45) 
CHEMBL827377

>  <aidx>  (45) 
CLD0

>  <pref_name>  (45) 
Cyclin-dependent kinase 2

>  <activity_id>  (45) 
1467549

>  <molregno>  (45) 
313075

>  <standard_relation>  (45) 
=

>  <standard_value>  (45) 
60.

>  <standard_units>  (45) 
nM

>  <standard_flag>  (45) 
1

>  <standard_type>  (45) 
Ki

>  <pchembl_value>  (45) 
7.22

>  <src_id (#1)>  (45) 
1

>  <type>  (45) 
Ki

>  <relation>  (45) 
=

>  <value>  (45) 
0.06

>  <units>  (45) 
uM

>  <standard_inchi_key>  (45) 
PFAAZWLEKZPBLT-UHFFFAOYSA-N

>  <canonical_smiles>  (45) 
COc1cccc(Nc2nccc(n2)c3cnn4nc(OC)ccc34)c1

$$$$
CHEMBL365248
     RDKit          2D

 29 32  0  0  0  0  0  0  0  0999 V2000
   12.5198   -0.3878    0.0000 C   0  0  0  0  0  0  0  0  0  0  0  0
   11.5676   -0.6934    0.0000 O   0  0  0  0  0  0  0  0  0  0  0  0
   10.8294   -0.0240    0.0000 C   0  0  0  0  0  0  0  0  0  0  0  0
    9.8806   -0.3284    0.0000 C   0  0  0  0  0  0  0  0  0  0  0  0
    9.1426    0.3410    0.0000 C   0  0  0  0  0  0  0  0  0  0  0  0
    9.3532    1.3148    0.0000 C   0  0  0  0  0  0  0  0  0  0  0  0
    8.7704    2.1230    0.0000 C   0  0  0  0  0  0  0  0  0  0  0  0
    9.3590    2.9270    0.0000 C   0  0  0  0  0  0  0  0  0  0  0  0
   10.3056    2.6158    0.0000 N   0  0  0  0  0  0  0  0  0  0  0  0
   10.3020    1.6194    0.0000 N   0  0  0  0  0  0  0  0  0  0  0  0
   11.0402    0.9500    0.0000 N   0  0  0  0  0  0  0  0  0  0  0  0
    7.7740    2.1266    0.0000 C   0  0  0  0  0  0  0  0  0  0  0  0
    7.2772    2.9944    0.0000 C   0  0  0  0  0  0  0  0  0  0  0  0
    6.2772    2.9980    0.0000 C   0  0  0  0  0  0  0  0  0  0  0  0
    5.7740    2.1338    0.0000 N   0  0  0  0  0  0  0  0  0  0  0  0
    6.2708    1.2660    0.0000 C   0  0  0  0  0  0  0  0  0  0  0  0
    5.7678    0.4018    0.0000 N   0  0  0  0  0  0  0  0  0  0  0  0
    4.7678    0.4052    0.0000 C   0  0  0  0  0  0  0  0  0  0  0  0
    4.2708    1.2728    0.0000 C   0  0  0  0  0  0  0  0  0  0  0  0
    3.2708    1.2762    0.0000 C   0  0  0  0  0  0  0  0  0  0  0  0
    2.7678    0.4120    0.0000 C   0  0  0  0  0  0  0  0  0  0  0  0
    3.2648   -0.4556    0.0000 C   0  0  0  0  0  0  0  0  0  0  0  0
    2.7620   -1.3200    0.0000 O   0  0  0  0  0  0  0  0  0  0  0  0
    1.7620   -1.3168    0.0000 C   0  0  0  0  0  0  0  0  0  0  0  0
    1.7652   -0.3168    0.0000 F   0  0  0  0  0  0  0  0  0  0  0  0
    0.8976   -0.8140    0.0000 F   0  0  0  0  0  0  0  0  0  0  0  0
    1.2592   -2.1812    0.0000 F   0  0  0  0  0  0  0  0  0  0  0  0
    4.2648   -0.4590    0.0000 C   0  0  0  0  0  0  0  0  0  0  0  0
    7.2708    1.2624    0.0000 N   0  0  0  0  0  0  0  0  0  0  0  0
  1  2  1  0
  2  3  1  0
  3  4  1  0
  4  5  2  0
  5  6  1  0
  6  7  2  0
  8  9  2  0
 10  6  1  0
  9 10  1  0
 11  3  2  0
 10 11  1  0
  7  8  1  0
  7 12  1  0
 12 13  2  0
 13 14  1  0
 14 15  2  0
 15 16  1  0
 17 18  1  0
 18 19  2  0
 19 20  1  0
 20 21  2  0
 21 22  1  0
 23 24  1  0
 24 25  1  0
 24 26  1  0
 24 27  1  0
 22 23  1  0
 28 18  1  0
 22 28  2  0
 16 17  1  0
 29 12  1  0
 16 29  2  0
M  END
>  <compound_chembl_id>  (46) 
CHEMBL365248

>  <assay_id>  (46) 
302524

>  <doc_id>  (46) 
21080

>  <description>  (46) 
Binding affinity for human cyclin-dependent kinase 2

>  <assay_organism>  (46) 
Homo sapiens

>  <assay_chembl_id>  (46) 
CHEMBL827377

>  <aidx>  (46) 
CLD0

>  <pref_name>  (46) 
Cyclin-dependent kinase 2

>  <activity_id>  (46) 
1467553

>  <molregno>  (46) 
312648

>  <standard_relation>  (46) 
=

>  <standard_value>  (46) 
190.

>  <standard_units>  (46) 
nM

>  <standard_flag>  (46) 
1

>  <standard_type>  (46) 
Ki

>  <pchembl_value>  (46) 
6.72

>  <src_id (#1)>  (46) 
1

>  <type>  (46) 
Ki

>  <relation>  (46) 
=

>  <value>  (46) 
0.19

>  <units>  (46) 
uM

>  <standard_inchi_key>  (46) 
IXSZNCPQZGGHKB-UHFFFAOYSA-N

>  <canonical_smiles>  (46) 
COc1ccc2c(cnn2n1)c3ccnc(Nc4cccc(OC(F)(F)F)c4)n3

$$$$
CHEMBL189352
     RDKit          2D

 26 29  0  0  0  0  0  0  0  0999 V2000
   12.5198   -0.3878    0.0000 C   0  0  0  0  0  0  0  0  0  0  0  0
   11.5676   -0.6934    0.0000 O   0  0  0  0  0  0  0  0  0  0  0  0
   10.8294   -0.0240    0.0000 C   0  0  0  0  0  0  0  0  0  0  0  0
    9.8806   -0.3284    0.0000 C   0  0  0  0  0  0  0  0  0  0  0  0
    9.1426    0.3410    0.0000 C   0  0  0  0  0  0  0  0  0  0  0  0
    9.3532    1.3148    0.0000 C   0  0  0  0  0  0  0  0  0  0  0  0
    8.7704    2.1230    0.0000 C   0  0  0  0  0  0  0  0  0  0  0  0
    9.3590    2.9270    0.0000 C   0  0  0  0  0  0  0  0  0  0  0  0
   10.3056    2.6158    0.0000 N   0  0  0  0  0  0  0  0  0  0  0  0
   10.3020    1.6194    0.0000 N   0  0  0  0  0  0  0  0  0  0  0  0
   11.0402    0.9500    0.0000 N   0  0  0  0  0  0  0  0  0  0  0  0
    7.7740    2.1266    0.0000 C   0  0  0  0  0  0  0  0  0  0  0  0
    7.2772    2.9944    0.0000 C   0  0  0  0  0  0  0  0  0  0  0  0
    6.2772    2.9980    0.0000 C   0  0  0  0  0  0  0  0  0  0  0  0
    5.7740    2.1338    0.0000 N   0  0  0  0  0  0  0  0  0  0  0  0
    6.2708    1.2660    0.0000 C   0  0  0  0  0  0  0  0  0  0  0  0
    5.7678    0.4018    0.0000 N   0  0  0  0  0  0  0  0  0  0  0  0
    4.7678    0.4052    0.0000 C   0  0  0  0  0  0  0  0  0  0  0  0
    4.2708    1.2728    0.0000 C   0  0  0  0  0  0  0  0  0  0  0  0
    3.2708    1.2762    0.0000 C   0  0  0  0  0  0  0  0  0  0  0  0
    2.7678    0.4120    0.0000 C   0  0  0  0  0  0  0  0  0  0  0  0
    3.2648   -0.4556    0.0000 C   0  0  0  0  0  0  0  0  0  0  0  0
    4.2648   -0.4590    0.0000 C   0  0  0  0  0  0  0  0  0  0  0  0
    1.7678    0.4154    0.0000 C   0  0  0  0  0  0  0  0  0  0  0  0
    0.7678    0.4188    0.0000 N   0  0  0  0  0  0  0  0  0  0  0  0
    7.2708    1.2624    0.0000 N   0  0  0  0  0  0  0  0  0  0  0  0
  1  2  1  0
  2  3  1  0
  3  4  1  0
  4  5  2  0
  5  6  1  0
  6  7  2  0
  8  9  2  0
 10  6  1  0
  9 10  1  0
 11  3  2  0
 10 11  1  0
  7  8  1  0
  7 12  1  0
 12 13  2  0
 13 14  1  0
 14 15  2  0
 15 16  1  0
 17 18  1  0
 18 19  2  0
 19 20  1  0
 20 21  2  0
 23 18  1  0
 22 23  2  0
 21 22  1  0
 21 24  1  0
 24 25  3  0
 16 17  1  0
 26 12  1  0
 16 26  2  0
M  END
>  <compound_chembl_id>  (47) 
CHEMBL189352

>  <assay_id>  (47) 
302524

>  <doc_id>  (47) 
21080

>  <description>  (47) 
Binding affinity for human cyclin-dependent kinase 2

>  <assay_organism>  (47) 
Homo sapiens

>  <assay_chembl_id>  (47) 
CHEMBL827377

>  <aidx>  (47) 
CLD0

>  <pref_name>  (47) 
Cyclin-dependent kinase 2

>  <activity_id>  (47) 
1467556

>  <molregno>  (47) 
312805

>  <standard_relation>  (47) 
=

>  <standard_value>  (47) 
500.

>  <standard_units>  (47) 
nM

>  <standard_flag>  (47) 
1

>  <standard_type>  (47) 
Ki

>  <pchembl_value>  (47) 
6.3

>  <src_id (#1)>  (47) 
1

>  <type>  (47) 
Ki

>  <relation>  (47) 
=

>  <value>  (47) 
0.5

>  <units>  (47) 
uM

>  <standard_inchi_key>  (47) 
NDGOAYJLMNXBRG-UHFFFAOYSA-N

>  <canonical_smiles>  (47) 
COc1ccc2c(cnn2n1)c3ccnc(Nc4ccc(cc4)C#N)n3

$$$$
CHEMBL186288
     RDKit          2D

 27 30  0  0  0  0  0  0  0  0999 V2000
   12.5198   -0.3878    0.0000 C   0  0  0  0  0  0  0  0  0  0  0  0
   11.5676   -0.6934    0.0000 O   0  0  0  0  0  0  0  0  0  0  0  0
   10.8294   -0.0240    0.0000 C   0  0  0  0  0  0  0  0  0  0  0  0
    9.8806   -0.3284    0.0000 C   0  0  0  0  0  0  0  0  0  0  0  0
    9.1426    0.3410    0.0000 C   0  0  0  0  0  0  0  0  0  0  0  0
    9.3532    1.3148    0.0000 C   0  0  0  0  0  0  0  0  0  0  0  0
    8.7704    2.1230    0.0000 C   0  0  0  0  0  0  0  0  0  0  0  0
    9.3590    2.9270    0.0000 C   0  0  0  0  0  0  0  0  0  0  0  0
   10.3056    2.6158    0.0000 N   0  0  0  0  0  0  0  0  0  0  0  0
   10.3020    1.6194    0.0000 N   0  0  0  0  0  0  0  0  0  0  0  0
   11.0402    0.9500    0.0000 N   0  0  0  0  0  0  0  0  0  0  0  0
    7.7740    2.1266    0.0000 C   0  0  0  0  0  0  0  0  0  0  0  0
    7.2772    2.9944    0.0000 C   0  0  0  0  0  0  0  0  0  0  0  0
    6.2772    2.9980    0.0000 C   0  0  0  0  0  0  0  0  0  0  0  0
    5.7740    2.1338    0.0000 N   0  0  0  0  0  0  0  0  0  0  0  0
    6.2708    1.2660    0.0000 C   0  0  0  0  0  0  0  0  0  0  0  0
    5.7678    0.4018    0.0000 N   0  0  0  0  0  0  0  0  0  0  0  0
    4.7678    0.4052    0.0000 C   0  0  0  0  0  0  0  0  0  0  0  0
    4.2708    1.2728    0.0000 C   0  0  0  0  0  0  0  0  0  0  0  0
    3.2708    1.2762    0.0000 C   0  0  0  0  0  0  0  0  0  0  0  0
    2.7678    0.4120    0.0000 C   0  0  0  0  0  0  0  0  0  0  0  0
    3.2648   -0.4556    0.0000 C   0  0  0  0  0  0  0  0  0  0  0  0
    4.2648   -0.4590    0.0000 C   0  0  0  0  0  0  0  0  0  0  0  0
    1.7678    0.4154    0.0000 N   0  0  0  0  0  0  0  0  0  0  0  0
    1.2648   -0.4488    0.0000 O   0  0  0  0  0  0  0  0  0  0  0  0
    1.2708    1.2830    0.0000 O   0  0  0  0  0  0  0  0  0  0  0  0
    7.2708    1.2624    0.0000 N   0  0  0  0  0  0  0  0  0  0  0  0
  1  2  1  0
  2  3  1  0
  3  4  1  0
  4  5  2  0
  5  6  1  0
  6  7  2  0
  8  9  2  0
 10  6  1  0
  9 10  1  0
 11  3  2  0
 10 11  1  0
  7  8  1  0
  7 12  1  0
 12 13  2  0
 13 14  1  0
 14 15  2  0
 15 16  1  0
 17 18  1  0
 18 19  2  0
 19 20  1  0
 20 21  2  0
 23 18  1  0
 22 23  2  0
 21 22  1  0
 21 24  1  0
 24 25  2  0
 24 26  1  0
 16 17  1  0
 27 12  1  0
 16 27  2  0
M  CHG  2  24   1  26  -1
M  END
>  <compound_chembl_id>  (48) 
CHEMBL186288

>  <assay_id>  (48) 
302524

>  <doc_id>  (48) 
21080

>  <description>  (48) 
Binding affinity for human cyclin-dependent kinase 2

>  <assay_organism>  (48) 
Homo sapiens

>  <assay_chembl_id>  (48) 
CHEMBL827377

>  <aidx>  (48) 
CLD0

>  <pref_name>  (48) 
Cyclin-dependent kinase 2

>  <activity_id>  (48) 
1467559

>  <molregno>  (48) 
312822

>  <standard_relation>  (48) 
=

>  <standard_value>  (48) 
20.

>  <standard_units>  (48) 
nM

>  <standard_flag>  (48) 
1

>  <standard_type>  (48) 
Ki

>  <pchembl_value>  (48) 
7.7

>  <src_id (#1)>  (48) 
1

>  <type>  (48) 
Ki

>  <relation>  (48) 
=

>  <value>  (48) 
0.02

>  <units>  (48) 
uM

>  <standard_inchi_key>  (48) 
RBHCYWNSENRQLN-UHFFFAOYSA-N

>  <canonical_smiles>  (48) 
COc1ccc2c(cnn2n1)c3ccnc(Nc4ccc(cc4)[N+](=O)[O-])n3

$$$$
CHEMBL188417
     RDKit          2D

 28 31  0  0  0  0  0  0  0  0999 V2000
    1.7738    2.1474    0.0000 C   0  0  0  0  0  0  0  0  0  0  0  0
    2.7738    2.1440    0.0000 O   0  0  0  0  0  0  0  0  0  0  0  0
    3.2708    1.2762    0.0000 C   0  0  0  0  0  0  0  0  0  0  0  0
    4.2708    1.2728    0.0000 C   0  0  0  0  0  0  0  0  0  0  0  0
    4.7678    0.4052    0.0000 C   0  0  0  0  0  0  0  0  0  0  0  0
    5.7678    0.4018    0.0000 N   0  0  0  0  0  0  0  0  0  0  0  0
    6.2708    1.2660    0.0000 C   0  0  0  0  0  0  0  0  0  0  0  0
    5.7740    2.1338    0.0000 N   0  0  0  0  0  0  0  0  0  0  0  0
    6.2772    2.9980    0.0000 C   0  0  0  0  0  0  0  0  0  0  0  0
    7.2772    2.9944    0.0000 C   0  0  0  0  0  0  0  0  0  0  0  0
    7.7740    2.1266    0.0000 C   0  0  0  0  0  0  0  0  0  0  0  0
    7.2708    1.2624    0.0000 N   0  0  0  0  0  0  0  0  0  0  0  0
    8.7704    2.1230    0.0000 C   0  0  0  0  0  0  0  0  0  0  0  0
    9.3590    2.9270    0.0000 C   0  0  0  0  0  0  0  0  0  0  0  0
   10.3056    2.6158    0.0000 N   0  0  0  0  0  0  0  0  0  0  0  0
   10.3020    1.6194    0.0000 N   0  0  0  0  0  0  0  0  0  0  0  0
   11.0402    0.9500    0.0000 N   0  0  0  0  0  0  0  0  0  0  0  0
   10.8294   -0.0240    0.0000 C   0  0  0  0  0  0  0  0  0  0  0  0
   11.5676   -0.6934    0.0000 O   0  0  0  0  0  0  0  0  0  0  0  0
   12.5198   -0.3878    0.0000 C   0  0  0  0  0  0  0  0  0  0  0  0
    9.8806   -0.3284    0.0000 C   0  0  0  0  0  0  0  0  0  0  0  0
    9.1426    0.3410    0.0000 C   0  0  0  0  0  0  0  0  0  0  0  0
    9.3532    1.3148    0.0000 C   0  0  0  0  0  0  0  0  0  0  0  0
    4.2648   -0.4590    0.0000 C   0  0  0  0  0  0  0  0  0  0  0  0
    3.2648   -0.4556    0.0000 C   0  0  0  0  0  0  0  0  0  0  0  0
    2.7620   -1.3200    0.0000 O   0  0  0  0  0  0  0  0  0  0  0  0
    1.7620   -1.3168    0.0000 C   0  0  0  0  0  0  0  0  0  0  0  0
    2.7678    0.4120    0.0000 C   0  0  0  0  0  0  0  0  0  0  0  0
  1  2  1  0
  2  3  1  0
  3  4  2  0
  4  5  1  0
  6  7  1  0
  7  8  2  0
  8  9  1  0
  9 10  2  0
 10 11  1  0
 12  7  1  0
 11 12  2  0
 11 13  1  0
 13 14  1  0
 14 15  2  0
 15 16  1  0
 16 17  1  0
 17 18  2  0
 19 20  1  0
 18 19  1  0
 18 21  1  0
 21 22  2  0
 23 13  2  0
 23 16  1  0
 22 23  1  0
  5  6  1  0
  5 24  2  0
 24 25  1  0
 26 27  1  0
 25 26  1  0
 28  3  1  0
 25 28  2  0
M  END
>  <compound_chembl_id>  (49) 
CHEMBL188417

>  <assay_id>  (49) 
302524

>  <doc_id>  (49) 
21080

>  <description>  (49) 
Binding affinity for human cyclin-dependent kinase 2

>  <assay_organism>  (49) 
Homo sapiens

>  <assay_chembl_id>  (49) 
CHEMBL827377

>  <aidx>  (49) 
CLD0

>  <pref_name>  (49) 
Cyclin-dependent kinase 2

>  <activity_id>  (49) 
1467562

>  <molregno>  (49) 
312711

>  <standard_relation>  (49) 
=

>  <standard_value>  (49) 
190.

>  <standard_units>  (49) 
nM

>  <standard_flag>  (49) 
1

>  <standard_type>  (49) 
Ki

>  <pchembl_value>  (49) 
6.72

>  <src_id (#1)>  (49) 
1

>  <type>  (49) 
Ki

>  <relation>  (49) 
=

>  <value>  (49) 
0.19

>  <units>  (49) 
uM

>  <standard_inchi_key>  (49) 
MRFMXCDMVCFHFP-UHFFFAOYSA-N

>  <canonical_smiles>  (49) 
COc1cc(Nc2nccc(n2)c3cnn4nc(OC)ccc34)cc(OC)c1

$$$$
CHEMBL187139
     RDKit          2D

 30 33  0  0  0  0  0  0  0  0999 V2000
    1.7738    2.1474    0.0000 C   0  0  0  0  0  0  0  0  0  0  0  0
    2.7738    2.1440    0.0000 O   0  0  0  0  0  0  0  0  0  0  0  0
    3.2708    1.2762    0.0000 C   0  0  0  0  0  0  0  0  0  0  0  0
    4.2708    1.2728    0.0000 C   0  0  0  0  0  0  0  0  0  0  0  0
    4.7678    0.4052    0.0000 C   0  0  0  0  0  0  0  0  0  0  0  0
    5.7678    0.4018    0.0000 N   0  0  0  0  0  0  0  0  0  0  0  0
    6.2708    1.2660    0.0000 C   0  0  0  0  0  0  0  0  0  0  0  0
    5.7740    2.1338    0.0000 N   0  0  0  0  0  0  0  0  0  0  0  0
    6.2772    2.9980    0.0000 C   0  0  0  0  0  0  0  0  0  0  0  0
    7.2772    2.9944    0.0000 C   0  0  0  0  0  0  0  0  0  0  0  0
    7.7740    2.1266    0.0000 C   0  0  0  0  0  0  0  0  0  0  0  0
    7.2708    1.2624    0.0000 N   0  0  0  0  0  0  0  0  0  0  0  0
    8.7704    2.1230    0.0000 C   0  0  0  0  0  0  0  0  0  0  0  0
    9.3590    2.9270    0.0000 C   0  0  0  0  0  0  0  0  0  0  0  0
   10.3056    2.6158    0.0000 N   0  0  0  0  0  0  0  0  0  0  0  0
   10.3020    1.6194    0.0000 N   0  0  0  0  0  0  0  0  0  0  0  0
   11.0402    0.9500    0.0000 N   0  0  0  0  0  0  0  0  0  0  0  0
   10.8294   -0.0240    0.0000 C   0  0  0  0  0  0  0  0  0  0  0  0
   11.5676   -0.6934    0.0000 O   0  0  0  0  0  0  0  0  0  0  0  0
   12.5198   -0.3878    0.0000 C   0  0  0  0  0  0  0  0  0  0  0  0
    9.8806   -0.3284    0.0000 C   0  0  0  0  0  0  0  0  0  0  0  0
    9.1426    0.3410    0.0000 C   0  0  0  0  0  0  0  0  0  0  0  0
    9.3532    1.3148    0.0000 C   0  0  0  0  0  0  0  0  0  0  0  0
    4.2648   -0.4590    0.0000 C   0  0  0  0  0  0  0  0  0  0  0  0
    3.2648   -0.4556    0.0000 C   0  0  0  0  0  0  0  0  0  0  0  0
    2.7678    0.4120    0.0000 C   0  0  0  0  0  0  0  0  0  0  0  0
    2.7620   -1.3200    0.0000 C   0  0  0  0  0  0  0  0  0  0  0  0
    3.6264   -1.8228    0.0000 F   0  0  0  0  0  0  0  0  0  0  0  0
    2.7588   -2.3200    0.0000 F   0  0  0  0  0  0  0  0  0  0  0  0
    1.7620   -1.3168    0.0000 F   0  0  0  0  0  0  0  0  0  0  0  0
  1  2  1  0
  2  3  1  0
  3  4  2  0
  4  5  1  0
  6  7  1  0
  7  8  2  0
  8  9  1  0
  9 10  2  0
 10 11  1  0
 12  7  1  0
 11 12  2  0
 11 13  1  0
 13 14  1  0
 14 15  2  0
 15 16  1  0
 16 17  1  0
 17 18  2  0
 19 20  1  0
 18 19  1  0
 18 21  1  0
 21 22  2  0
 23 13  2  0
 23 16  1  0
 22 23  1  0
  5  6  1  0
  5 24  2  0
 24 25  1  0
 26  3  1  0
 25 26  2  0
 25 27  1  0
 27 28  1  0
 27 29  1  0
 27 30  1  0
M  END
>  <compound_chembl_id>  (50) 
CHEMBL187139

>  <assay_id>  (50) 
302524

>  <doc_id>  (50) 
21080

>  <description>  (50) 
Binding affinity for human cyclin-dependent kinase 2

>  <assay_organism>  (50) 
Homo sapiens

>  <assay_chembl_id>  (50) 
CHEMBL827377

>  <aidx>  (50) 
CLD0

>  <pref_name>  (50) 
Cyclin-dependent kinase 2

>  <activity_id>  (50) 
1467565

>  <molregno>  (50) 
312618

>  <standard_relation>  (50) 
=

>  <standard_value>  (50) 
790.

>  <standard_units>  (50) 
nM

>  <standard_flag>  (50) 
1

>  <standard_type>  (50) 
Ki

>  <pchembl_value>  (50) 
6.1

>  <src_id (#1)>  (50) 
1

>  <type>  (50) 
Ki

>  <relation>  (50) 
=

>  <value>  (50) 
0.79

>  <units>  (50) 
uM

>  <standard_inchi_key>  (50) 
GJYVLTPTDBQQCY-UHFFFAOYSA-N

>  <canonical_smiles>  (50) 
COc1cc(Nc2nccc(n2)c3cnn4nc(OC)ccc34)cc(c1)C(F)(F)F

$$$$
CHEMBL188426
     RDKit          2D

 31 34  0  0  0  0  0  0  0  0999 V2000
   13.2658   -1.0617    0.0000 C   0  0  0  0  0  0  0  0  0  0  0  0
   12.5243   -0.3917    0.0000 C   0  0  0  0  0  0  0  0  0  0  0  0
   11.5734   -0.6989    0.0000 O   0  0  0  0  0  0  0  0  0  0  0  0
   10.8336   -0.0293    0.0000 C   0  0  0  0  0  0  0  0  0  0  0  0
    9.8822   -0.3325    0.0000 C   0  0  0  0  0  0  0  0  0  0  0  0
    9.1407    0.3365    0.0000 C   0  0  0  0  0  0  0  0  0  0  0  0
    9.3525    1.3144    0.0000 C   0  0  0  0  0  0  0  0  0  0  0  0
    8.7675    2.1244    0.0000 C   0  0  0  0  0  0  0  0  0  0  0  0
    9.3593    2.9304    0.0000 C   0  0  0  0  0  0  0  0  0  0  0  0
   10.3087    2.6195    0.0000 N   0  0  0  0  0  0  0  0  0  0  0  0
   10.3047    1.6189    0.0000 N   0  0  0  0  0  0  0  0  0  0  0  0
   11.0456    0.9483    0.0000 N   0  0  0  0  0  0  0  0  0  0  0  0
    7.7738    2.1267    0.0000 C   0  0  0  0  0  0  0  0  0  0  0  0
    7.2771    2.9942    0.0000 C   0  0  0  0  0  0  0  0  0  0  0  0
    6.2770    2.9983    0.0000 C   0  0  0  0  0  0  0  0  0  0  0  0
    5.7741    2.1337    0.0000 N   0  0  0  0  0  0  0  0  0  0  0  0
    6.2708    1.2662    0.0000 C   0  0  0  0  0  0  0  0  0  0  0  0
    5.7684    0.4015    0.0000 N   0  0  0  0  0  0  0  0  0  0  0  0
    4.7674    0.4053    0.0000 C   0  0  0  0  0  0  0  0  0  0  0  0
    4.2709    1.2731    0.0000 C   0  0  0  0  0  0  0  0  0  0  0  0
    3.2703    1.2763    0.0000 C   0  0  0  0  0  0  0  0  0  0  0  0
    2.7746    2.1439    0.0000 O   0  0  0  0  0  0  0  0  0  0  0  0
    1.7745    2.1476    0.0000 C   0  0  0  0  0  0  0  0  0  0  0  0
    2.7682    0.4118    0.0000 C   0  0  0  0  0  0  0  0  0  0  0  0
    3.2647   -0.4559    0.0000 C   0  0  0  0  0  0  0  0  0  0  0  0
    4.2653   -0.4592    0.0000 C   0  0  0  0  0  0  0  0  0  0  0  0
    2.7630   -1.3202    0.0000 C   0  0  0  0  0  0  0  0  0  0  0  0
    3.6273   -1.8230    0.0000 F   0  0  0  0  0  0  0  0  0  0  0  0
    2.7596   -2.3202    0.0000 F   0  0  0  0  0  0  0  0  0  0  0  0
    1.7629   -1.3169    0.0000 F   0  0  0  0  0  0  0  0  0  0  0  0
    7.2710    1.2621    0.0000 N   0  0  0  0  0  0  0  0  0  0  0  0
  1  2  1  0
  2  3  1  0
  3  4  1  0
  4  5  1  0
  5  6  2  0
  6  7  1  0
  7  8  2  0
  9 10  2  0
 11  7  1  0
 10 11  1  0
 12  4  2  0
 11 12  1  0
  8  9  1  0
  8 13  1  0
 13 14  2  0
 14 15  1  0
 15 16  2  0
 16 17  1  0
 18 19  1  0
 19 20  2  0
 20 21  1  0
 22 23  1  0
 21 22  1  0
 21 24  2  0
 24 25  1  0
 26 19  1  0
 25 26  2  0
 25 27  1  0
 27 28  1  0
 27 29  1  0
 27 30  1  0
 17 18  1  0
 31 13  1  0
 17 31  2  0
M  END
>  <compound_chembl_id>  (51) 
CHEMBL188426

>  <assay_id>  (51) 
302524

>  <doc_id>  (51) 
21080

>  <description>  (51) 
Binding affinity for human cyclin-dependent kinase 2

>  <assay_organism>  (51) 
Homo sapiens

>  <assay_chembl_id>  (51) 
CHEMBL827377

>  <aidx>  (51) 
CLD0

>  <pref_name>  (51) 
Cyclin-dependent kinase 2

>  <activity_id>  (51) 
1467568

>  <molregno>  (51) 
312779

>  <standard_relation>  (51) 
>

>  <standard_value>  (51) 
19950.

>  <standard_units>  (51) 
nM

>  <standard_flag>  (51) 
1

>  <standard_type>  (51) 
Ki

>  <src_id (#1)>  (51) 
1

>  <type>  (51) 
Ki

>  <relation>  (51) 
>

>  <value>  (51) 
19.95

>  <units>  (51) 
uM

>  <standard_inchi_key>  (51) 
FXUBIYKZSFWJQZ-UHFFFAOYSA-N

>  <canonical_smiles>  (51) 
CCOc1ccc2c(cnn2n1)c3ccnc(Nc4cc(OC)cc(c4)C(F)(F)F)n3

$$$$
CHEMBL188205
     RDKit          2D

 32 35  0  0  0  0  0  0  0  0999 V2000
   12.5198   -0.3878    0.0000 C   0  0  0  0  0  0  0  0  0  0  0  0
   11.5676   -0.6934    0.0000 O   0  0  0  0  0  0  0  0  0  0  0  0
   10.8294   -0.0240    0.0000 C   0  0  0  0  0  0  0  0  0  0  0  0
    9.8806   -0.3284    0.0000 C   0  0  0  0  0  0  0  0  0  0  0  0
    9.1426    0.3410    0.0000 C   0  0  0  0  0  0  0  0  0  0  0  0
    9.3532    1.3148    0.0000 C   0  0  0  0  0  0  0  0  0  0  0  0
    8.7704    2.1230    0.0000 C   0  0  0  0  0  0  0  0  0  0  0  0
    9.3590    2.9270    0.0000 C   0  0  0  0  0  0  0  0  0  0  0  0
   10.3056    2.6158    0.0000 N   0  0  0  0  0  0  0  0  0  0  0  0
   10.3020    1.6194    0.0000 N   0  0  0  0  0  0  0  0  0  0  0  0
   11.0402    0.9500    0.0000 N   0  0  0  0  0  0  0  0  0  0  0  0
    7.7740    2.1266    0.0000 C   0  0  0  0  0  0  0  0  0  0  0  0
    7.2772    2.9944    0.0000 C   0  0  0  0  0  0  0  0  0  0  0  0
    6.2772    2.9980    0.0000 C   0  0  0  0  0  0  0  0  0  0  0  0
    5.7740    2.1338    0.0000 N   0  0  0  0  0  0  0  0  0  0  0  0
    6.2708    1.2660    0.0000 C   0  0  0  0  0  0  0  0  0  0  0  0
    5.7678    0.4018    0.0000 N   0  0  0  0  0  0  0  0  0  0  0  0
    4.7678    0.4052    0.0000 C   0  0  0  0  0  0  0  0  0  0  0  0
    4.2648   -0.4590    0.0000 C   0  0  0  0  0  0  0  0  0  0  0  0
    3.2648   -0.4556    0.0000 C   0  0  0  0  0  0  0  0  0  0  0  0
    2.7678    0.4120    0.0000 C   0  0  0  0  0  0  0  0  0  0  0  0
    3.2708    1.2762    0.0000 C   0  0  0  0  0  0  0  0  0  0  0  0
    4.2708    1.2728    0.0000 C   0  0  0  0  0  0  0  0  0  0  0  0
    2.7738    2.1440    0.0000 C   0  0  0  0  0  0  0  0  0  0  0  0
    3.6416    2.6410    0.0000 F   0  0  0  0  0  0  0  0  0  0  0  0
    2.7772    3.1440    0.0000 F   0  0  0  0  0  0  0  0  0  0  0  0
    1.7738    2.1474    0.0000 F   0  0  0  0  0  0  0  0  0  0  0  0
    2.7620   -1.3200    0.0000 C   0  0  0  0  0  0  0  0  0  0  0  0
    3.6264   -1.8228    0.0000 F   0  0  0  0  0  0  0  0  0  0  0  0
    2.7588   -2.3200    0.0000 F   0  0  0  0  0  0  0  0  0  0  0  0
    1.7620   -1.3168    0.0000 F   0  0  0  0  0  0  0  0  0  0  0  0
    7.2708    1.2624    0.0000 N   0  0  0  0  0  0  0  0  0  0  0  0
  1  2  1  0
  2  3  1  0
  3  4  1  0
  4  5  2  0
  5  6  1  0
  6  7  2  0
  8  9  2  0
 10  6  1  0
  9 10  1  0
 11  3  2  0
 10 11  1  0
  7  8  1  0
  7 12  1  0
 12 13  2  0
 13 14  1  0
 14 15  2  0
 15 16  1  0
 17 18  1  0
 18 19  2  0
 19 20  1  0
 21 22  1  0
 23 18  1  0
 22 23  2  0
 22 24  1  0
 24 25  1  0
 24 26  1  0
 24 27  1  0
 20 21  2  0
 20 28  1  0
 28 29  1  0
 28 30  1  0
 28 31  1  0
 16 17  1  0
 32 12  1  0
 16 32  2  0
M  END
>  <compound_chembl_id>  (52) 
CHEMBL188205

>  <assay_id>  (52) 
302524

>  <doc_id>  (52) 
21080

>  <description>  (52) 
Binding affinity for human cyclin-dependent kinase 2

>  <assay_organism>  (52) 
Homo sapiens

>  <assay_chembl_id>  (52) 
CHEMBL827377

>  <aidx>  (52) 
CLD0

>  <pref_name>  (52) 
Cyclin-dependent kinase 2

>  <activity_id>  (52) 
1467571

>  <molregno>  (52) 
312969

>  <standard_relation>  (52) 
>

>  <standard_value>  (52) 
19950.

>  <standard_units>  (52) 
nM

>  <standard_flag>  (52) 
1

>  <standard_type>  (52) 
Ki

>  <src_id (#1)>  (52) 
1

>  <type>  (52) 
Ki

>  <relation>  (52) 
>

>  <value>  (52) 
19.95

>  <units>  (52) 
uM

>  <standard_inchi_key>  (52) 
PHJRPJMEZGTTKC-UHFFFAOYSA-N

>  <canonical_smiles>  (52) 
COc1ccc2c(cnn2n1)c3ccnc(Nc4cc(cc(c4)C(F)(F)F)C(F)(F)F)n3

$$$$
CHEMBL188785
     RDKit          2D

 28 32  0  0  0  0  0  0  0  0999 V2000
   12.5198   -0.3878    0.0000 C   0  0  0  0  0  0  0  0  0  0  0  0
   11.5676   -0.6934    0.0000 O   0  0  0  0  0  0  0  0  0  0  0  0
   10.8294   -0.0240    0.0000 C   0  0  0  0  0  0  0  0  0  0  0  0
    9.8806   -0.3284    0.0000 C   0  0  0  0  0  0  0  0  0  0  0  0
    9.1426    0.3410    0.0000 C   0  0  0  0  0  0  0  0  0  0  0  0
    9.3532    1.3148    0.0000 C   0  0  0  0  0  0  0  0  0  0  0  0
    8.7704    2.1230    0.0000 C   0  0  0  0  0  0  0  0  0  0  0  0
    9.3590    2.9270    0.0000 C   0  0  0  0  0  0  0  0  0  0  0  0
   10.3056    2.6158    0.0000 N   0  0  0  0  0  0  0  0  0  0  0  0
   10.3020    1.6194    0.0000 N   0  0  0  0  0  0  0  0  0  0  0  0
   11.0402    0.9500    0.0000 N   0  0  0  0  0  0  0  0  0  0  0  0
    7.7740    2.1266    0.0000 C   0  0  0  0  0  0  0  0  0  0  0  0
    7.2772    2.9944    0.0000 C   0  0  0  0  0  0  0  0  0  0  0  0
    6.2772    2.9980    0.0000 C   0  0  0  0  0  0  0  0  0  0  0  0
    5.7740    2.1338    0.0000 N   0  0  0  0  0  0  0  0  0  0  0  0
    6.2708    1.2660    0.0000 C   0  0  0  0  0  0  0  0  0  0  0  0
    5.7678    0.4018    0.0000 N   0  0  0  0  0  0  0  0  0  0  0  0
    4.7678    0.4052    0.0000 C   0  0  0  0  0  0  0  0  0  0  0  0
    4.2708    1.2728    0.0000 C   0  0  0  0  0  0  0  0  0  0  0  0
    3.2708    1.2762    0.0000 C   0  0  0  0  0  0  0  0  0  0  0  0
    2.7678    0.4120    0.0000 C   0  0  0  0  0  0  0  0  0  0  0  0
    1.7678    0.4154    0.0000 O   0  0  0  0  0  0  0  0  0  0  0  0
    1.2648   -0.4488    0.0000 C   0  0  0  0  0  0  0  0  0  0  0  0
    1.7622   -1.3166    0.0000 C   0  0  0  0  0  0  0  0  0  0  0  0
    2.7620   -1.3200    0.0000 O   0  0  0  0  0  0  0  0  0  0  0  0
    3.2648   -0.4556    0.0000 C   0  0  0  0  0  0  0  0  0  0  0  0
    4.2648   -0.4590    0.0000 C   0  0  0  0  0  0  0  0  0  0  0  0
    7.2708    1.2624    0.0000 N   0  0  0  0  0  0  0  0  0  0  0  0
  1  2  1  0
  2  3  1  0
  3  4  1  0
  4  5  2  0
  5  6  1  0
  6  7  2  0
  8  9  2  0
 10  6  1  0
  9 10  1  0
 11  3  2  0
 10 11  1  0
  7  8  1  0
  7 12  1  0
 12 13  2  0
 13 14  1  0
 14 15  2  0
 15 16  1  0
 17 18  1  0
 18 19  2  0
 19 20  1  0
 20 21  2  0
 21 22  1  0
 22 23  1  0
 23 24  1  0
 24 25  1  0
 26 21  1  0
 25 26  1  0
 27 18  1  0
 26 27  2  0
 16 17  1  0
 28 12  1  0
 16 28  2  0
M  END
>  <compound_chembl_id>  (53) 
CHEMBL188785

>  <assay_id>  (53) 
302524

>  <doc_id>  (53) 
21080

>  <description>  (53) 
Binding affinity for human cyclin-dependent kinase 2

>  <assay_organism>  (53) 
Homo sapiens

>  <assay_chembl_id>  (53) 
CHEMBL827377

>  <aidx>  (53) 
CLD0

>  <pref_name>  (53) 
Cyclin-dependent kinase 2

>  <activity_id>  (53) 
1467671

>  <molregno>  (53) 
313262

>  <standard_relation>  (53) 
=

>  <standard_value>  (53) 
100.

>  <standard_units>  (53) 
nM

>  <standard_flag>  (53) 
1

>  <standard_type>  (53) 
Ki

>  <pchembl_value>  (53) 
7.

>  <src_id (#1)>  (53) 
1

>  <type>  (53) 
Ki

>  <relation>  (53) 
=

>  <value>  (53) 
0.1

>  <units>  (53) 
uM

>  <standard_inchi_key>  (53) 
ILJWGWQUBUXSLL-UHFFFAOYSA-N

>  <canonical_smiles>  (53) 
COc1ccc2c(cnn2n1)c3ccnc(Nc4ccc5OCCOc5c4)n3

$$$$
CHEMBL187006
     RDKit          2D

 27 30  0  0  0  0  0  0  0  0999 V2000
   11.5676   -0.6934    0.0000 C   0  0  0  0  0  0  0  0  0  0  0  0
   10.8294   -0.0240    0.0000 C   0  0  0  0  0  0  0  0  0  0  0  0
    9.8806   -0.3284    0.0000 C   0  0  0  0  0  0  0  0  0  0  0  0
    9.1426    0.3410    0.0000 C   0  0  0  0  0  0  0  0  0  0  0  0
    9.3532    1.3148    0.0000 C   0  0  0  0  0  0  0  0  0  0  0  0
    8.7704    2.1230    0.0000 C   0  0  0  0  0  0  0  0  0  0  0  0
    9.3590    2.9270    0.0000 C   0  0  0  0  0  0  0  0  0  0  0  0
   10.3056    2.6158    0.0000 N   0  0  0  0  0  0  0  0  0  0  0  0
   10.3020    1.6194    0.0000 N   0  0  0  0  0  0  0  0  0  0  0  0
   11.0402    0.9500    0.0000 N   0  0  0  0  0  0  0  0  0  0  0  0
    7.7740    2.1266    0.0000 C   0  0  0  0  0  0  0  0  0  0  0  0
    7.2772    2.9944    0.0000 C   0  0  0  0  0  0  0  0  0  0  0  0
    6.2772    2.9980    0.0000 C   0  0  0  0  0  0  0  0  0  0  0  0
    5.7740    2.1338    0.0000 N   0  0  0  0  0  0  0  0  0  0  0  0
    6.2708    1.2660    0.0000 C   0  0  0  0  0  0  0  0  0  0  0  0
    5.7678    0.4018    0.0000 N   0  0  0  0  0  0  0  0  0  0  0  0
    4.7678    0.4052    0.0000 C   0  0  0  0  0  0  0  0  0  0  0  0
    4.2708    1.2728    0.0000 C   0  0  0  0  0  0  0  0  0  0  0  0
    3.2708    1.2762    0.0000 C   0  0  0  0  0  0  0  0  0  0  0  0
    2.7678    0.4120    0.0000 C   0  0  0  0  0  0  0  0  0  0  0  0
    3.2648   -0.4556    0.0000 C   0  0  0  0  0  0  0  0  0  0  0  0
    4.2648   -0.4590    0.0000 C   0  0  0  0  0  0  0  0  0  0  0  0
    2.7620   -1.3200    0.0000 C   0  0  0  0  0  0  0  0  0  0  0  0
    3.6264   -1.8228    0.0000 F   0  0  0  0  0  0  0  0  0  0  0  0
    2.7588   -2.3200    0.0000 F   0  0  0  0  0  0  0  0  0  0  0  0
    1.7620   -1.3168    0.0000 F   0  0  0  0  0  0  0  0  0  0  0  0
    7.2708    1.2624    0.0000 N   0  0  0  0  0  0  0  0  0  0  0  0
  1  2  1  0
  2  3  1  0
  3  4  2  0
  4  5  1  0
  5  6  2  0
  7  8  2  0
  9  5  1  0
  8  9  1  0
 10  2  2  0
  9 10  1  0
  6  7  1  0
  6 11  1  0
 11 12  2  0
 12 13  1  0
 13 14  2  0
 14 15  1  0
 16 17  1  0
 17 18  2  0
 18 19  1  0
 19 20  2  0
 20 21  1  0
 22 17  1  0
 21 22  2  0
 21 23  1  0
 23 24  1  0
 23 25  1  0
 23 26  1  0
 15 16  1  0
 27 11  1  0
 15 27  2  0
M  END
>  <compound_chembl_id>  (54) 
CHEMBL187006

>  <assay_id>  (54) 
302524

>  <doc_id>  (54) 
21080

>  <description>  (54) 
Binding affinity for human cyclin-dependent kinase 2

>  <assay_organism>  (54) 
Homo sapiens

>  <assay_chembl_id>  (54) 
CHEMBL827377

>  <aidx>  (54) 
CLD0

>  <pref_name>  (54) 
Cyclin-dependent kinase 2

>  <activity_id>  (54) 
1467674

>  <molregno>  (54) 
313002

>  <standard_relation>  (54) 
=

>  <standard_value>  (54) 
50.

>  <standard_units>  (54) 
nM

>  <standard_flag>  (54) 
1

>  <standard_type>  (54) 
Ki

>  <pchembl_value>  (54) 
7.3

>  <src_id (#1)>  (54) 
1

>  <type>  (54) 
Ki

>  <relation>  (54) 
=

>  <value>  (54) 
0.05

>  <units>  (54) 
uM

>  <standard_inchi_key>  (54) 
YPDVNNOPAKMWBO-UHFFFAOYSA-N

>  <canonical_smiles>  (54) 
Cc1ccc2c(cnn2n1)c3ccnc(Nc4cccc(c4)C(F)(F)F)n3

$$$$
CHEMBL188303
     RDKit          2D

 27 30  0  0  0  0  0  0  0  0999 V2000
   11.5676   -0.6934    0.0000 C   0  0  0  0  0  0  0  0  0  0  0  0
   10.8294   -0.0240    0.0000 C   0  0  0  0  0  0  0  0  0  0  0  0
    9.8806   -0.3284    0.0000 C   0  0  0  0  0  0  0  0  0  0  0  0
    9.1426    0.3410    0.0000 C   0  0  0  0  0  0  0  0  0  0  0  0
    9.3532    1.3148    0.0000 C   0  0  0  0  0  0  0  0  0  0  0  0
    8.7704    2.1230    0.0000 C   0  0  0  0  0  0  0  0  0  0  0  0
    9.3590    2.9270    0.0000 C   0  0  0  0  0  0  0  0  0  0  0  0
   10.3056    2.6158    0.0000 N   0  0  0  0  0  0  0  0  0  0  0  0
   10.3020    1.6194    0.0000 N   0  0  0  0  0  0  0  0  0  0  0  0
   11.0402    0.9500    0.0000 N   0  0  0  0  0  0  0  0  0  0  0  0
    7.7740    2.1266    0.0000 C   0  0  0  0  0  0  0  0  0  0  0  0
    7.2772    2.9944    0.0000 C   0  0  0  0  0  0  0  0  0  0  0  0
    6.2772    2.9980    0.0000 C   0  0  0  0  0  0  0  0  0  0  0  0
    5.7740    2.1338    0.0000 N   0  0  0  0  0  0  0  0  0  0  0  0
    6.2708    1.2660    0.0000 C   0  0  0  0  0  0  0  0  0  0  0  0
    5.7678    0.4018    0.0000 N   0  0  0  0  0  0  0  0  0  0  0  0
    4.7678    0.4052    0.0000 C   0  0  0  0  0  0  0  0  0  0  0  0
    4.2708    1.2728    0.0000 C   0  0  0  0  0  0  0  0  0  0  0  0
    3.2708    1.2762    0.0000 C   0  0  0  0  0  0  0  0  0  0  0  0
    2.7678    0.4120    0.0000 C   0  0  0  0  0  0  0  0  0  0  0  0
    3.2648   -0.4556    0.0000 C   0  0  0  0  0  0  0  0  0  0  0  0
    4.2648   -0.4590    0.0000 C   0  0  0  0  0  0  0  0  0  0  0  0
    1.7678    0.4154    0.0000 C   0  0  0  0  0  0  0  0  0  0  0  0
    1.7712    1.4154    0.0000 F   0  0  0  0  0  0  0  0  0  0  0  0
    0.9036    0.9184    0.0000 F   0  0  0  0  0  0  0  0  0  0  0  0
    1.2648   -0.4488    0.0000 F   0  0  0  0  0  0  0  0  0  0  0  0
    7.2708    1.2624    0.0000 N   0  0  0  0  0  0  0  0  0  0  0  0
  1  2  1  0
  2  3  1  0
  3  4  2  0
  4  5  1  0
  5  6  2  0
  7  8  2  0
  9  5  1  0
  8  9  1  0
 10  2  2  0
  9 10  1  0
  6  7  1  0
  6 11  1  0
 11 12  2  0
 12 13  1  0
 13 14  2  0
 14 15  1  0
 16 17  1  0
 17 18  2  0
 18 19  1  0
 19 20  2  0
 22 17  1  0
 21 22  2  0
 20 21  1  0
 20 23  1  0
 23 24  1  0
 23 25  1  0
 23 26  1  0
 15 16  1  0
 27 11  1  0
 15 27  2  0
M  END
>  <compound_chembl_id>  (55) 
CHEMBL188303

>  <assay_id>  (55) 
302524

>  <doc_id>  (55) 
21080

>  <description>  (55) 
Binding affinity for human cyclin-dependent kinase 2

>  <assay_organism>  (55) 
Homo sapiens

>  <assay_chembl_id>  (55) 
CHEMBL827377

>  <aidx>  (55) 
CLD0

>  <pref_name>  (55) 
Cyclin-dependent kinase 2

>  <activity_id>  (55) 
1467677

>  <molregno>  (55) 
313325

>  <standard_relation>  (55) 
=

>  <standard_value>  (55) 
190.

>  <standard_units>  (55) 
nM

>  <standard_flag>  (55) 
1

>  <standard_type>  (55) 
Ki

>  <pchembl_value>  (55) 
6.72

>  <src_id (#1)>  (55) 
1

>  <type>  (55) 
Ki

>  <relation>  (55) 
=

>  <value>  (55) 
0.19

>  <units>  (55) 
uM

>  <standard_inchi_key>  (55) 
LOAIUSJMQXSEBK-UHFFFAOYSA-N

>  <canonical_smiles>  (55) 
Cc1ccc2c(cnn2n1)c3ccnc(Nc4ccc(cc4)C(F)(F)F)n3

$$$$
CHEMBL186680
     RDKit          2D

 29 32  0  0  0  0  0  0  0  0999 V2000
    1.7738    2.1474    0.0000 C   0  0  0  0  0  0  0  0  0  0  0  0
    2.7738    2.1440    0.0000 O   0  0  0  0  0  0  0  0  0  0  0  0
    3.2708    1.2762    0.0000 C   0  0  0  0  0  0  0  0  0  0  0  0
    4.2708    1.2728    0.0000 C   0  0  0  0  0  0  0  0  0  0  0  0
    4.7678    0.4052    0.0000 C   0  0  0  0  0  0  0  0  0  0  0  0
    5.7678    0.4018    0.0000 N   0  0  0  0  0  0  0  0  0  0  0  0
    6.2708    1.2660    0.0000 C   0  0  0  0  0  0  0  0  0  0  0  0
    5.7740    2.1338    0.0000 N   0  0  0  0  0  0  0  0  0  0  0  0
    6.2772    2.9980    0.0000 C   0  0  0  0  0  0  0  0  0  0  0  0
    7.2772    2.9944    0.0000 C   0  0  0  0  0  0  0  0  0  0  0  0
    7.7740    2.1266    0.0000 C   0  0  0  0  0  0  0  0  0  0  0  0
    7.2708    1.2624    0.0000 N   0  0  0  0  0  0  0  0  0  0  0  0
    8.7704    2.1230    0.0000 C   0  0  0  0  0  0  0  0  0  0  0  0
    9.3590    2.9270    0.0000 C   0  0  0  0  0  0  0  0  0  0  0  0
   10.3056    2.6158    0.0000 N   0  0  0  0  0  0  0  0  0  0  0  0
   10.3020    1.6194    0.0000 N   0  0  0  0  0  0  0  0  0  0  0  0
   11.0402    0.9500    0.0000 N   0  0  0  0  0  0  0  0  0  0  0  0
   10.8294   -0.0240    0.0000 C   0  0  0  0  0  0  0  0  0  0  0  0
   11.5676   -0.6934    0.0000 C   0  0  0  0  0  0  0  0  0  0  0  0
    9.8806   -0.3284    0.0000 C   0  0  0  0  0  0  0  0  0  0  0  0
    9.1426    0.3410    0.0000 C   0  0  0  0  0  0  0  0  0  0  0  0
    9.3532    1.3148    0.0000 C   0  0  0  0  0  0  0  0  0  0  0  0
    4.2648   -0.4590    0.0000 C   0  0  0  0  0  0  0  0  0  0  0  0
    3.2648   -0.4556    0.0000 C   0  0  0  0  0  0  0  0  0  0  0  0
    2.7678    0.4120    0.0000 C   0  0  0  0  0  0  0  0  0  0  0  0
    2.7620   -1.3200    0.0000 C   0  0  0  0  0  0  0  0  0  0  0  0
    3.6264   -1.8228    0.0000 F   0  0  0  0  0  0  0  0  0  0  0  0
    2.7588   -2.3200    0.0000 F   0  0  0  0  0  0  0  0  0  0  0  0
    1.7620   -1.3168    0.0000 F   0  0  0  0  0  0  0  0  0  0  0  0
  1  2  1  0
  2  3  1  0
  3  4  2  0
  4  5  1  0
  6  7  1  0
  7  8  2  0
  8  9  1  0
  9 10  2  0
 10 11  1  0
 12  7  1  0
 11 12  2  0
 11 13  1  0
 13 14  1  0
 14 15  2  0
 15 16  1  0
 16 17  1  0
 17 18  2  0
 18 19  1  0
 18 20  1  0
 20 21  2  0
 22 13  2  0
 22 16  1  0
 21 22  1  0
  5  6  1  0
  5 23  2  0
 23 24  1  0
 25  3  1  0
 24 25  2  0
 24 26  1  0
 26 27  1  0
 26 28  1  0
 26 29  1  0
M  END
>  <compound_chembl_id>  (56) 
CHEMBL186680

>  <assay_id>  (56) 
302524

>  <doc_id>  (56) 
21080

>  <description>  (56) 
Binding affinity for human cyclin-dependent kinase 2

>  <assay_organism>  (56) 
Homo sapiens

>  <assay_chembl_id>  (56) 
CHEMBL827377

>  <aidx>  (56) 
CLD0

>  <pref_name>  (56) 
Cyclin-dependent kinase 2

>  <activity_id>  (56) 
1467681

>  <molregno>  (56) 
312884

>  <standard_relation>  (56) 
=

>  <standard_value>  (56) 
20.

>  <standard_units>  (56) 
nM

>  <standard_flag>  (56) 
1

>  <standard_type>  (56) 
Ki

>  <pchembl_value>  (56) 
7.7

>  <src_id (#1)>  (56) 
1

>  <type>  (56) 
Ki

>  <relation>  (56) 
=

>  <value>  (56) 
0.02

>  <units>  (56) 
uM

>  <standard_inchi_key>  (56) 
ZANNOGKZSUYAAD-UHFFFAOYSA-N

>  <canonical_smiles>  (56) 
COc1cc(Nc2nccc(n2)c3cnn4nc(C)ccc34)cc(c1)C(F)(F)F

$$$$
CHEMBL434337
     RDKit          2D

 27 31  0  0  0  0  0  0  0  0999 V2000
   11.5676   -0.6934    0.0000 C   0  0  0  0  0  0  0  0  0  0  0  0
   10.8294   -0.0240    0.0000 C   0  0  0  0  0  0  0  0  0  0  0  0
    9.8806   -0.3284    0.0000 C   0  0  0  0  0  0  0  0  0  0  0  0
    9.1426    0.3410    0.0000 C   0  0  0  0  0  0  0  0  0  0  0  0
    9.3532    1.3148    0.0000 C   0  0  0  0  0  0  0  0  0  0  0  0
    8.7704    2.1230    0.0000 C   0  0  0  0  0  0  0  0  0  0  0  0
    9.3590    2.9270    0.0000 C   0  0  0  0  0  0  0  0  0  0  0  0
   10.3056    2.6158    0.0000 N   0  0  0  0  0  0  0  0  0  0  0  0
   10.3020    1.6194    0.0000 N   0  0  0  0  0  0  0  0  0  0  0  0
   11.0402    0.9500    0.0000 N   0  0  0  0  0  0  0  0  0  0  0  0
    7.7740    2.1266    0.0000 C   0  0  0  0  0  0  0  0  0  0  0  0
    7.2772    2.9944    0.0000 C   0  0  0  0  0  0  0  0  0  0  0  0
    6.2772    2.9980    0.0000 C   0  0  0  0  0  0  0  0  0  0  0  0
    5.7740    2.1338    0.0000 N   0  0  0  0  0  0  0  0  0  0  0  0
    6.2708    1.2660    0.0000 C   0  0  0  0  0  0  0  0  0  0  0  0
    5.7678    0.4018    0.0000 N   0  0  0  0  0  0  0  0  0  0  0  0
    4.7678    0.4052    0.0000 C   0  0  0  0  0  0  0  0  0  0  0  0
    4.2708    1.2728    0.0000 C   0  0  0  0  0  0  0  0  0  0  0  0
    3.2708    1.2762    0.0000 C   0  0  0  0  0  0  0  0  0  0  0  0
    2.7678    0.4120    0.0000 C   0  0  0  0  0  0  0  0  0  0  0  0
    1.7678    0.4154    0.0000 O   0  0  0  0  0  0  0  0  0  0  0  0
    1.2648   -0.4488    0.0000 C   0  0  0  0  0  0  0  0  0  0  0  0
    1.7622   -1.3166    0.0000 C   0  0  0  0  0  0  0  0  0  0  0  0
    2.7620   -1.3200    0.0000 O   0  0  0  0  0  0  0  0  0  0  0  0
    3.2648   -0.4556    0.0000 C   0  0  0  0  0  0  0  0  0  0  0  0
    4.2648   -0.4590    0.0000 C   0  0  0  0  0  0  0  0  0  0  0  0
    7.2708    1.2624    0.0000 N   0  0  0  0  0  0  0  0  0  0  0  0
  1  2  1  0
  2  3  1  0
  3  4  2  0
  4  5  1  0
  5  6  2  0
  7  8  2  0
  9  5  1  0
  8  9  1  0
 10  2  2  0
  9 10  1  0
  6  7  1  0
  6 11  1  0
 11 12  2  0
 12 13  1  0
 13 14  2  0
 14 15  1  0
 16 17  1  0
 17 18  2  0
 18 19  1  0
 19 20  2  0
 20 21  1  0
 21 22  1  0
 22 23  1  0
 23 24  1  0
 25 20  1  0
 24 25  1  0
 26 17  1  0
 25 26  2  0
 15 16  1  0
 27 11  1  0
 15 27  2  0
M  END
>  <compound_chembl_id>  (57) 
CHEMBL434337

>  <assay_id>  (57) 
302524

>  <doc_id>  (57) 
21080

>  <description>  (57) 
Binding affinity for human cyclin-dependent kinase 2

>  <assay_organism>  (57) 
Homo sapiens

>  <assay_chembl_id>  (57) 
CHEMBL827377

>  <aidx>  (57) 
CLD0

>  <pref_name>  (57) 
Cyclin-dependent kinase 2

>  <activity_id>  (57) 
1467684

>  <molregno>  (57) 
313202

>  <standard_relation>  (57) 
=

>  <standard_value>  (57) 
6.

>  <standard_units>  (57) 
nM

>  <standard_flag>  (57) 
1

>  <standard_type>  (57) 
Ki

>  <pchembl_value>  (57) 
8.22

>  <src_id (#1)>  (57) 
1

>  <type>  (57) 
Ki

>  <relation>  (57) 
=

>  <value>  (57) 
0.006

>  <units>  (57) 
uM

>  <standard_inchi_key>  (57) 
NKTGKAVJSAUPCX-UHFFFAOYSA-N

>  <canonical_smiles>  (57) 
Cc1ccc2c(cnn2n1)c3ccnc(Nc4ccc5OCCOc5c4)n3

$$$$
CHEMBL189415
     RDKit          2D

 32 36  0  0  0  0  0  0  0  0999 V2000
    3.6416    2.6410    0.0000 F   0  0  0  0  0  0  0  0  0  0  0  0
    2.7738    2.1440    0.0000 C   0  0  0  0  0  0  0  0  0  0  0  0
    2.7772    3.1440    0.0000 F   0  0  0  0  0  0  0  0  0  0  0  0
    1.7738    2.1474    0.0000 F   0  0  0  0  0  0  0  0  0  0  0  0
    3.2708    1.2762    0.0000 C   0  0  0  0  0  0  0  0  0  0  0  0
    2.7678    0.4120    0.0000 C   0  0  0  0  0  0  0  0  0  0  0  0
    3.2648   -0.4556    0.0000 C   0  0  0  0  0  0  0  0  0  0  0  0
    4.2648   -0.4590    0.0000 C   0  0  0  0  0  0  0  0  0  0  0  0
    4.7678    0.4052    0.0000 C   0  0  0  0  0  0  0  0  0  0  0  0
    5.7678    0.4018    0.0000 N   0  0  0  0  0  0  0  0  0  0  0  0
    6.2708    1.2660    0.0000 C   0  0  0  0  0  0  0  0  0  0  0  0
    5.7740    2.1338    0.0000 N   0  0  0  0  0  0  0  0  0  0  0  0
    6.2772    2.9980    0.0000 C   0  0  0  0  0  0  0  0  0  0  0  0
    7.2772    2.9944    0.0000 C   0  0  0  0  0  0  0  0  0  0  0  0
    7.7740    2.1266    0.0000 C   0  0  0  0  0  0  0  0  0  0  0  0
    7.2708    1.2624    0.0000 N   0  0  0  0  0  0  0  0  0  0  0  0
    8.7704    2.1230    0.0000 C   0  0  0  0  0  0  0  0  0  0  0  0
    9.3590    2.9270    0.0000 C   0  0  0  0  0  0  0  0  0  0  0  0
   10.3056    2.6158    0.0000 N   0  0  0  0  0  0  0  0  0  0  0  0
   10.3020    1.6194    0.0000 N   0  0  0  0  0  0  0  0  0  0  0  0
   11.0402    0.9500    0.0000 N   0  0  0  0  0  0  0  0  0  0  0  0
   10.8294   -0.0240    0.0000 C   0  0  0  0  0  0  0  0  0  0  0  0
    9.8806   -0.3284    0.0000 C   0  0  0  0  0  0  0  0  0  0  0  0
    9.1426    0.3410    0.0000 C   0  0  0  0  0  0  0  0  0  0  0  0
    9.3532    1.3148    0.0000 C   0  0  0  0  0  0  0  0  0  0  0  0
   11.5676   -0.6934    0.0000 C   0  0  0  0  0  0  0  0  0  0  0  0
   12.5198   -0.3878    0.0000 C   0  0  0  0  0  0  0  0  0  0  0  0
   13.2606   -1.0594    0.0000 C   0  0  0  0  0  0  0  0  0  0  0  0
   13.0492   -2.0368    0.0000 C   0  0  0  0  0  0  0  0  0  0  0  0
   12.0970   -2.3426    0.0000 C   0  0  0  0  0  0  0  0  0  0  0  0
   11.3562   -1.6708    0.0000 C   0  0  0  0  0  0  0  0  0  0  0  0
    4.2708    1.2728    0.0000 C   0  0  0  0  0  0  0  0  0  0  0  0
  1  2  1  0
  2  3  1  0
  2  4  1  0
  2  5  1  0
  5  6  2  0
  6  7  1  0
  7  8  2  0
  8  9  1  0
 10 11  1  0
 11 12  2  0
 12 13  1  0
 13 14  2  0
 14 15  1  0
 16 11  1  0
 15 16  2  0
 15 17  1  0
 17 18  1  0
 18 19  2  0
 19 20  1  0
 20 21  1  0
 21 22  2  0
 23 24  2  0
 25 17  2  0
 25 20  1  0
 24 25  1  0
 22 23  1  0
 22 26  1  0
 26 27  2  0
 27 28  1  0
 28 29  2  0
 29 30  1  0
 31 26  1  0
 30 31  2  0
  9 10  1  0
 32  5  1  0
  9 32  2  0
M  END
>  <compound_chembl_id>  (58) 
CHEMBL189415

>  <assay_id>  (58) 
302524

>  <doc_id>  (58) 
21080

>  <description>  (58) 
Binding affinity for human cyclin-dependent kinase 2

>  <assay_organism>  (58) 
Homo sapiens

>  <assay_chembl_id>  (58) 
CHEMBL827377

>  <aidx>  (58) 
CLD0

>  <pref_name>  (58) 
Cyclin-dependent kinase 2

>  <activity_id>  (58) 
1467687

>  <molregno>  (58) 
313006

>  <standard_relation>  (58) 
=

>  <standard_value>  (58) 
2500.

>  <standard_units>  (58) 
nM

>  <standard_flag>  (58) 
1

>  <standard_type>  (58) 
Ki

>  <pchembl_value>  (58) 
5.6

>  <src_id (#1)>  (58) 
1

>  <type>  (58) 
Ki

>  <relation>  (58) 
=

>  <value>  (58) 
2.5

>  <units>  (58) 
uM

>  <standard_inchi_key>  (58) 
WZYFWJBVNQRGCX-UHFFFAOYSA-N

>  <canonical_smiles>  (58) 
FC(F)(F)c1cccc(Nc2nccc(n2)c3cnn4nc(ccc34)c5ccccc5)c1

$$$$
CHEMBL186606
     RDKit          2D

 32 37  0  0  0  0  0  0  0  0999 V2000
    1.2708    1.2830    0.0000 C   0  0  0  0  0  0  0  0  0  0  0  0
    1.7740    2.1474    0.0000 C   0  0  0  0  0  0  0  0  0  0  0  0
    2.7738    2.1440    0.0000 O   0  0  0  0  0  0  0  0  0  0  0  0
    3.2708    1.2762    0.0000 C   0  0  0  0  0  0  0  0  0  0  0  0
    4.2708    1.2728    0.0000 C   0  0  0  0  0  0  0  0  0  0  0  0
    4.7678    0.4052    0.0000 C   0  0  0  0  0  0  0  0  0  0  0  0
    5.7678    0.4018    0.0000 N   0  0  0  0  0  0  0  0  0  0  0  0
    6.2708    1.2660    0.0000 C   0  0  0  0  0  0  0  0  0  0  0  0
    5.7740    2.1338    0.0000 N   0  0  0  0  0  0  0  0  0  0  0  0
    6.2772    2.9980    0.0000 C   0  0  0  0  0  0  0  0  0  0  0  0
    7.2772    2.9944    0.0000 C   0  0  0  0  0  0  0  0  0  0  0  0
    7.7740    2.1266    0.0000 C   0  0  0  0  0  0  0  0  0  0  0  0
    7.2708    1.2624    0.0000 N   0  0  0  0  0  0  0  0  0  0  0  0
    8.7704    2.1230    0.0000 C   0  0  0  0  0  0  0  0  0  0  0  0
    9.3590    2.9270    0.0000 C   0  0  0  0  0  0  0  0  0  0  0  0
   10.3056    2.6158    0.0000 N   0  0  0  0  0  0  0  0  0  0  0  0
   10.3020    1.6194    0.0000 N   0  0  0  0  0  0  0  0  0  0  0  0
   11.0402    0.9500    0.0000 N   0  0  0  0  0  0  0  0  0  0  0  0
   10.8294   -0.0240    0.0000 C   0  0  0  0  0  0  0  0  0  0  0  0
    9.8806   -0.3284    0.0000 C   0  0  0  0  0  0  0  0  0  0  0  0
    9.1426    0.3410    0.0000 C   0  0  0  0  0  0  0  0  0  0  0  0
    9.3532    1.3148    0.0000 C   0  0  0  0  0  0  0  0  0  0  0  0
   11.5676   -0.6934    0.0000 C   0  0  0  0  0  0  0  0  0  0  0  0
   12.5198   -0.3878    0.0000 C   0  0  0  0  0  0  0  0  0  0  0  0
   13.2606   -1.0594    0.0000 C   0  0  0  0  0  0  0  0  0  0  0  0
   13.0492   -2.0368    0.0000 C   0  0  0  0  0  0  0  0  0  0  0  0
   12.0970   -2.3426    0.0000 C   0  0  0  0  0  0  0  0  0  0  0  0
   11.3562   -1.6708    0.0000 C   0  0  0  0  0  0  0  0  0  0  0  0
    4.2648   -0.4590    0.0000 C   0  0  0  0  0  0  0  0  0  0  0  0
    3.2648   -0.4556    0.0000 C   0  0  0  0  0  0  0  0  0  0  0  0
    2.7678    0.4120    0.0000 C   0  0  0  0  0  0  0  0  0  0  0  0
    1.7678    0.4154    0.0000 O   0  0  0  0  0  0  0  0  0  0  0  0
  1  2  1  0
  2  3  1  0
  3  4  1  0
  4  5  1  0
  5  6  2  0
  7  8  1  0
  8  9  2  0
  9 10  1  0
 10 11  2  0
 11 12  1  0
 13  8  1  0
 12 13  2  0
 12 14  1  0
 14 15  1  0
 15 16  2  0
 16 17  1  0
 17 18  1  0
 18 19  2  0
 20 21  2  0
 22 14  2  0
 22 17  1  0
 21 22  1  0
 19 20  1  0
 19 23  1  0
 23 24  2  0
 24 25  1  0
 25 26  2  0
 26 27  1  0
 28 23  1  0
 27 28  2  0
  6  7  1  0
  6 29  1  0
 29 30  2  0
 31  4  2  0
 30 31  1  0
 32  1  1  0
 31 32  1  0
M  END
>  <compound_chembl_id>  (59) 
CHEMBL186606

>  <assay_id>  (59) 
302524

>  <doc_id>  (59) 
21080

>  <description>  (59) 
Binding affinity for human cyclin-dependent kinase 2

>  <assay_organism>  (59) 
Homo sapiens

>  <assay_chembl_id>  (59) 
CHEMBL827377

>  <aidx>  (59) 
CLD0

>  <pref_name>  (59) 
Cyclin-dependent kinase 2

>  <activity_id>  (59) 
1467690

>  <molregno>  (59) 
313304

>  <standard_relation>  (59) 
>

>  <standard_value>  (59) 
19950.

>  <standard_units>  (59) 
nM

>  <standard_flag>  (59) 
1

>  <standard_type>  (59) 
Ki

>  <src_id (#1)>  (59) 
1

>  <type>  (59) 
Ki

>  <relation>  (59) 
>

>  <value>  (59) 
19.95

>  <units>  (59) 
uM

>  <standard_inchi_key>  (59) 
HJWJIQIDROUCNV-UHFFFAOYSA-N

>  <canonical_smiles>  (59) 
C1COc2cc(Nc3nccc(n3)c4cnn5nc(ccc45)c6ccccc6)ccc2O1

$$$$
CHEMBL360408
     RDKit          2D

 28 32  0  0  0  0  0  0  0  0999 V2000
    5.7678    0.4018    0.0000 N   0  0  0  0  0  0  0  0  0  0  0  0
    4.7678    0.4052    0.0000 C   0  0  0  0  0  0  0  0  0  0  0  0
    4.2708    1.2728    0.0000 C   0  0  0  0  0  0  0  0  0  0  0  0
    3.2708    1.2762    0.0000 C   0  0  0  0  0  0  0  0  0  0  0  0
    2.7678    0.4120    0.0000 C   0  0  0  0  0  0  0  0  0  0  0  0
    3.2648   -0.4556    0.0000 C   0  0  0  0  0  0  0  0  0  0  0  0
    4.2648   -0.4590    0.0000 C   0  0  0  0  0  0  0  0  0  0  0  0
    6.2708    1.2660    0.0000 C   0  0  0  0  0  0  0  0  0  0  0  0
    5.7740    2.1338    0.0000 N   0  0  0  0  0  0  0  0  0  0  0  0
    6.2772    2.9980    0.0000 C   0  0  0  0  0  0  0  0  0  0  0  0
    7.2772    2.9944    0.0000 C   0  0  0  0  0  0  0  0  0  0  0  0
    7.7740    2.1266    0.0000 C   0  0  0  0  0  0  0  0  0  0  0  0
    7.2708    1.2624    0.0000 N   0  0  0  0  0  0  0  0  0  0  0  0
    8.7704    2.1230    0.0000 C   0  0  0  0  0  0  0  0  0  0  0  0
    9.3590    2.9270    0.0000 C   0  0  0  0  0  0  0  0  0  0  0  0
   10.3056    2.6158    0.0000 N   0  0  0  0  0  0  0  0  0  0  0  0
   10.3020    1.6194    0.0000 N   0  0  0  0  0  0  0  0  0  0  0  0
   11.0402    0.9500    0.0000 N   0  0  0  0  0  0  0  0  0  0  0  0
   10.8294   -0.0240    0.0000 C   0  0  0  0  0  0  0  0  0  0  0  0
    9.8806   -0.3284    0.0000 C   0  0  0  0  0  0  0  0  0  0  0  0
    9.1426    0.3410    0.0000 C   0  0  0  0  0  0  0  0  0  0  0  0
    9.3532    1.3148    0.0000 C   0  0  0  0  0  0  0  0  0  0  0  0
    9.0546    3.8758    0.0000 C   0  0  0  0  0  0  0  0  0  0  0  0
    8.0772    4.0874    0.0000 C   0  0  0  0  0  0  0  0  0  0  0  0
    7.7718    5.0396    0.0000 C   0  0  0  0  0  0  0  0  0  0  0  0
    8.4436    5.7802    0.0000 C   0  0  0  0  0  0  0  0  0  0  0  0
    9.4210    5.5686    0.0000 C   0  0  0  0  0  0  0  0  0  0  0  0
    9.7264    4.6164    0.0000 C   0  0  0  0  0  0  0  0  0  0  0  0
  2  3  2  0
  3  4  1  0
  4  5  2  0
  5  6  1  0
  7  2  1  0
  6  7  2  0
  1  2  1  0
  1  8  1  0
  8  9  2  0
  9 10  1  0
 10 11  2  0
 11 12  1  0
 13  8  1  0
 12 13  2  0
 12 14  1  0
 14 15  1  0
 16 17  1  0
 17 18  1  0
 18 19  2  0
 19 20  1  0
 20 21  2  0
 22 14  2  0
 22 17  1  0
 21 22  1  0
 15 16  2  0
 15 23  1  0
 23 24  2  0
 24 25  1  0
 25 26  2  0
 26 27  1  0
 28 23  1  0
 27 28  2  0
M  END
>  <compound_chembl_id>  (60) 
CHEMBL360408

>  <assay_id>  (60) 
302524

>  <doc_id>  (60) 
21080

>  <description>  (60) 
Binding affinity for human cyclin-dependent kinase 2

>  <assay_organism>  (60) 
Homo sapiens

>  <assay_chembl_id>  (60) 
CHEMBL827377

>  <aidx>  (60) 
CLD0

>  <pref_name>  (60) 
Cyclin-dependent kinase 2

>  <activity_id>  (60) 
1467693

>  <molregno>  (60) 
313076

>  <standard_relation>  (60) 
=

>  <standard_value>  (60) 
3980.

>  <standard_units>  (60) 
nM

>  <standard_flag>  (60) 
1

>  <standard_type>  (60) 
Ki

>  <pchembl_value>  (60) 
5.4

>  <src_id (#1)>  (60) 
1

>  <type>  (60) 
Ki

>  <relation>  (60) 
=

>  <value>  (60) 
3.98

>  <units>  (60) 
uM

>  <standard_inchi_key>  (60) 
UTOOHPODUPHFBL-UHFFFAOYSA-N

>  <canonical_smiles>  (60) 
N(c1ccccc1)c2nccc(n2)c3c(nn4ncccc34)c5ccccc5

$$$$
CHEMBL263448
     RDKit          2D

 32 36  0  0  0  0  0  0  0  0999 V2000
    3.6416    2.6410    0.0000 F   0  0  0  0  0  0  0  0  0  0  0  0
    2.7738    2.1440    0.0000 C   0  0  0  0  0  0  0  0  0  0  0  0
    2.7772    3.1440    0.0000 F   0  0  0  0  0  0  0  0  0  0  0  0
    1.7738    2.1474    0.0000 F   0  0  0  0  0  0  0  0  0  0  0  0
    3.2708    1.2762    0.0000 C   0  0  0  0  0  0  0  0  0  0  0  0
    2.7678    0.4120    0.0000 C   0  0  0  0  0  0  0  0  0  0  0  0
    3.2648   -0.4556    0.0000 C   0  0  0  0  0  0  0  0  0  0  0  0
    4.2648   -0.4590    0.0000 C   0  0  0  0  0  0  0  0  0  0  0  0
    4.7678    0.4052    0.0000 C   0  0  0  0  0  0  0  0  0  0  0  0
    5.7678    0.4018    0.0000 N   0  0  0  0  0  0  0  0  0  0  0  0
    6.2708    1.2660    0.0000 C   0  0  0  0  0  0  0  0  0  0  0  0
    5.7740    2.1338    0.0000 N   0  0  0  0  0  0  0  0  0  0  0  0
    6.2772    2.9980    0.0000 C   0  0  0  0  0  0  0  0  0  0  0  0
    7.2772    2.9944    0.0000 C   0  0  0  0  0  0  0  0  0  0  0  0
    7.7740    2.1266    0.0000 C   0  0  0  0  0  0  0  0  0  0  0  0
    7.2708    1.2624    0.0000 N   0  0  0  0  0  0  0  0  0  0  0  0
    8.7704    2.1230    0.0000 C   0  0  0  0  0  0  0  0  0  0  0  0
    9.3590    2.9270    0.0000 C   0  0  0  0  0  0  0  0  0  0  0  0
   10.3056    2.6158    0.0000 N   0  0  0  0  0  0  0  0  0  0  0  0
   10.3020    1.6194    0.0000 N   0  0  0  0  0  0  0  0  0  0  0  0
   11.0402    0.9500    0.0000 N   0  0  0  0  0  0  0  0  0  0  0  0
   10.8294   -0.0240    0.0000 C   0  0  0  0  0  0  0  0  0  0  0  0
    9.8806   -0.3284    0.0000 C   0  0  0  0  0  0  0  0  0  0  0  0
    9.1426    0.3410    0.0000 C   0  0  0  0  0  0  0  0  0  0  0  0
    9.3532    1.3148    0.0000 C   0  0  0  0  0  0  0  0  0  0  0  0
    9.0546    3.8758    0.0000 C   0  0  0  0  0  0  0  0  0  0  0  0
    8.0772    4.0874    0.0000 C   0  0  0  0  0  0  0  0  0  0  0  0
    7.7718    5.0396    0.0000 C   0  0  0  0  0  0  0  0  0  0  0  0
    8.4436    5.7802    0.0000 C   0  0  0  0  0  0  0  0  0  0  0  0
    9.4210    5.5686    0.0000 C   0  0  0  0  0  0  0  0  0  0  0  0
    9.7264    4.6164    0.0000 C   0  0  0  0  0  0  0  0  0  0  0  0
    4.2708    1.2728    0.0000 C   0  0  0  0  0  0  0  0  0  0  0  0
  1  2  1  0
  2  3  1  0
  2  4  1  0
  2  5  1  0
  5  6  2  0
  6  7  1  0
  7  8  2  0
  8  9  1  0
 10 11  1  0
 11 12  2  0
 12 13  1  0
 13 14  2  0
 14 15  1  0
 16 11  1  0
 15 16  2  0
 15 17  1  0
 17 18  1  0
 19 20  1  0
 20 21  1  0
 21 22  2  0
 22 23  1  0
 23 24  2  0
 25 17  2  0
 25 20  1  0
 24 25  1  0
 18 19  2  0
 18 26  1  0
 26 27  2  0
 27 28  1  0
 28 29  2  0
 29 30  1  0
 31 26  1  0
 30 31  2  0
  9 10  1  0
 32  5  1  0
  9 32  2  0
M  END
>  <compound_chembl_id>  (61) 
CHEMBL263448

>  <assay_id>  (61) 
302524

>  <doc_id>  (61) 
21080

>  <description>  (61) 
Binding affinity for human cyclin-dependent kinase 2

>  <assay_organism>  (61) 
Homo sapiens

>  <assay_chembl_id>  (61) 
CHEMBL827377

>  <aidx>  (61) 
CLD0

>  <pref_name>  (61) 
Cyclin-dependent kinase 2

>  <activity_id>  (61) 
1467697

>  <molregno>  (61) 
312774

>  <standard_relation>  (61) 
>

>  <standard_value>  (61) 
19950.

>  <standard_units>  (61) 
nM

>  <standard_flag>  (61) 
1

>  <standard_type>  (61) 
Ki

>  <src_id (#1)>  (61) 
1

>  <type>  (61) 
Ki

>  <relation>  (61) 
>

>  <value>  (61) 
19.95

>  <units>  (61) 
uM

>  <standard_inchi_key>  (61) 
BLAJHXAFHKBZSN-UHFFFAOYSA-N

>  <canonical_smiles>  (61) 
FC(F)(F)c1cccc(Nc2nccc(n2)c3c(nn4ncccc34)c5ccccc5)c1

$$$$
CHEMBL439850
     RDKit          2D

 30 34  0  0  0  0  0  0  0  0999 V2000
    1.7678    0.4154    0.0000 F   0  0  0  0  0  0  0  0  0  0  0  0
    2.7678    0.4120    0.0000 C   0  0  0  0  0  0  0  0  0  0  0  0
    3.2708    1.2762    0.0000 C   0  0  0  0  0  0  0  0  0  0  0  0
    4.2708    1.2728    0.0000 C   0  0  0  0  0  0  0  0  0  0  0  0
    4.7678    0.4052    0.0000 C   0  0  0  0  0  0  0  0  0  0  0  0
    5.7678    0.4018    0.0000 N   0  0  0  0  0  0  0  0  0  0  0  0
    6.2708    1.2660    0.0000 C   0  0  0  0  0  0  0  0  0  0  0  0
    5.7740    2.1338    0.0000 N   0  0  0  0  0  0  0  0  0  0  0  0
    6.2772    2.9980    0.0000 C   0  0  0  0  0  0  0  0  0  0  0  0
    7.2772    2.9944    0.0000 C   0  0  0  0  0  0  0  0  0  0  0  0
    7.7740    2.1266    0.0000 C   0  0  0  0  0  0  0  0  0  0  0  0
    7.2708    1.2624    0.0000 N   0  0  0  0  0  0  0  0  0  0  0  0
    8.7704    2.1230    0.0000 C   0  0  0  0  0  0  0  0  0  0  0  0
    9.3590    2.9270    0.0000 C   0  0  0  0  0  0  0  0  0  0  0  0
   10.3056    2.6158    0.0000 N   0  0  0  0  0  0  0  0  0  0  0  0
   10.3020    1.6194    0.0000 N   0  0  0  0  0  0  0  0  0  0  0  0
   11.0402    0.9500    0.0000 N   0  0  0  0  0  0  0  0  0  0  0  0
   10.8294   -0.0240    0.0000 C   0  0  0  0  0  0  0  0  0  0  0  0
    9.8806   -0.3284    0.0000 C   0  0  0  0  0  0  0  0  0  0  0  0
    9.1426    0.3410    0.0000 C   0  0  0  0  0  0  0  0  0  0  0  0
    9.3532    1.3148    0.0000 C   0  0  0  0  0  0  0  0  0  0  0  0
    9.0546    3.8758    0.0000 C   0  0  0  0  0  0  0  0  0  0  0  0
    8.0772    4.0874    0.0000 C   0  0  0  0  0  0  0  0  0  0  0  0
    7.7718    5.0396    0.0000 C   0  0  0  0  0  0  0  0  0  0  0  0
    8.4436    5.7802    0.0000 C   0  0  0  0  0  0  0  0  0  0  0  0
    9.4210    5.5686    0.0000 C   0  0  0  0  0  0  0  0  0  0  0  0
    9.7264    4.6164    0.0000 C   0  0  0  0  0  0  0  0  0  0  0  0
    4.2648   -0.4590    0.0000 C   0  0  0  0  0  0  0  0  0  0  0  0
    3.2648   -0.4556    0.0000 C   0  0  0  0  0  0  0  0  0  0  0  0
    2.7620   -1.3200    0.0000 F   0  0  0  0  0  0  0  0  0  0  0  0
  1  2  1  0
  2  3  2  0
  3  4  1  0
  4  5  2  0
  6  7  1  0
  7  8  2  0
  8  9  1  0
  9 10  2  0
 10 11  1  0
 12  7  1  0
 11 12  2  0
 11 13  1  0
 13 14  1  0
 15 16  1  0
 16 17  1  0
 17 18  2  0
 18 19  1  0
 19 20  2  0
 21 13  2  0
 21 16  1  0
 20 21  1  0
 14 15  2  0
 14 22  1  0
 22 23  2  0
 23 24  1  0
 24 25  2  0
 25 26  1  0
 27 22  1  0
 26 27  2  0
  5  6  1  0
  5 28  1  0
 29  2  1  0
 28 29  2  0
 29 30  1  0
M  END
>  <compound_chembl_id>  (62) 
CHEMBL439850

>  <assay_id>  (62) 
302524

>  <doc_id>  (62) 
21080

>  <description>  (62) 
Binding affinity for human cyclin-dependent kinase 2

>  <assay_organism>  (62) 
Homo sapiens

>  <assay_chembl_id>  (62) 
CHEMBL827377

>  <aidx>  (62) 
CLD0

>  <pref_name>  (62) 
Cyclin-dependent kinase 2

>  <activity_id>  (62) 
1467701

>  <molregno>  (62) 
312663

>  <standard_relation>  (62) 
>

>  <standard_value>  (62) 
19950.

>  <standard_units>  (62) 
nM

>  <standard_flag>  (62) 
1

>  <standard_type>  (62) 
Ki

>  <src_id (#1)>  (62) 
1

>  <type>  (62) 
Ki

>  <relation>  (62) 
>

>  <value>  (62) 
19.95

>  <units>  (62) 
uM

>  <standard_inchi_key>  (62) 
WYLUFGCIPSWIIG-UHFFFAOYSA-N

>  <canonical_smiles>  (62) 
Fc1ccc(Nc2nccc(n2)c3c(nn4ncccc34)c5ccccc5)cc1F

$$$$
CHEMBL186476
     RDKit          2D

 30 34  0  0  0  0  0  0  0  0999 V2000
    2.7738    2.1440    0.0000 F   0  0  0  0  0  0  0  0  0  0  0  0
    3.2708    1.2762    0.0000 C   0  0  0  0  0  0  0  0  0  0  0  0
    2.7678    0.4120    0.0000 C   0  0  0  0  0  0  0  0  0  0  0  0
    3.2648   -0.4556    0.0000 C   0  0  0  0  0  0  0  0  0  0  0  0
    2.7620   -1.3200    0.0000 F   0  0  0  0  0  0  0  0  0  0  0  0
    4.2648   -0.4590    0.0000 C   0  0  0  0  0  0  0  0  0  0  0  0
    4.7678    0.4052    0.0000 C   0  0  0  0  0  0  0  0  0  0  0  0
    5.7678    0.4018    0.0000 N   0  0  0  0  0  0  0  0  0  0  0  0
    6.2708    1.2660    0.0000 C   0  0  0  0  0  0  0  0  0  0  0  0
    5.7740    2.1338    0.0000 N   0  0  0  0  0  0  0  0  0  0  0  0
    6.2772    2.9980    0.0000 C   0  0  0  0  0  0  0  0  0  0  0  0
    7.2772    2.9944    0.0000 C   0  0  0  0  0  0  0  0  0  0  0  0
    7.7740    2.1266    0.0000 C   0  0  0  0  0  0  0  0  0  0  0  0
    7.2708    1.2624    0.0000 N   0  0  0  0  0  0  0  0  0  0  0  0
    8.7704    2.1230    0.0000 C   0  0  0  0  0  0  0  0  0  0  0  0
    9.3590    2.9270    0.0000 C   0  0  0  0  0  0  0  0  0  0  0  0
   10.3056    2.6158    0.0000 N   0  0  0  0  0  0  0  0  0  0  0  0
   10.3020    1.6194    0.0000 N   0  0  0  0  0  0  0  0  0  0  0  0
   11.0402    0.9500    0.0000 N   0  0  0  0  0  0  0  0  0  0  0  0
   10.8294   -0.0240    0.0000 C   0  0  0  0  0  0  0  0  0  0  0  0
    9.8806   -0.3284    0.0000 C   0  0  0  0  0  0  0  0  0  0  0  0
    9.1426    0.3410    0.0000 C   0  0  0  0  0  0  0  0  0  0  0  0
    9.3532    1.3148    0.0000 C   0  0  0  0  0  0  0  0  0  0  0  0
    9.0546    3.8758    0.0000 C   0  0  0  0  0  0  0  0  0  0  0  0
    8.0772    4.0874    0.0000 C   0  0  0  0  0  0  0  0  0  0  0  0
    7.7718    5.0396    0.0000 C   0  0  0  0  0  0  0  0  0  0  0  0
    8.4436    5.7802    0.0000 C   0  0  0  0  0  0  0  0  0  0  0  0
    9.4210    5.5686    0.0000 C   0  0  0  0  0  0  0  0  0  0  0  0
    9.7264    4.6164    0.0000 C   0  0  0  0  0  0  0  0  0  0  0  0
    4.2708    1.2728    0.0000 C   0  0  0  0  0  0  0  0  0  0  0  0
  1  2  1  0
  2  3  2  0
  3  4  1  0
  4  5  1  0
  4  6  2  0
  6  7  1  0
  8  9  1  0
  9 10  2  0
 10 11  1  0
 11 12  2  0
 12 13  1  0
 14  9  1  0
 13 14  2  0
 13 15  1  0
 15 16  1  0
 17 18  1  0
 18 19  1  0
 19 20  2  0
 20 21  1  0
 21 22  2  0
 23 15  2  0
 23 18  1  0
 22 23  1  0
 16 17  2  0
 16 24  1  0
 24 25  2  0
 25 26  1  0
 26 27  2  0
 27 28  1  0
 29 24  1  0
 28 29  2  0
  7  8  1  0
 30  2  1  0
  7 30  2  0
M  END
>  <compound_chembl_id>  (63) 
CHEMBL186476

>  <assay_id>  (63) 
302524

>  <doc_id>  (63) 
21080

>  <description>  (63) 
Binding affinity for human cyclin-dependent kinase 2

>  <assay_organism>  (63) 
Homo sapiens

>  <assay_chembl_id>  (63) 
CHEMBL827377

>  <aidx>  (63) 
CLD0

>  <pref_name>  (63) 
Cyclin-dependent kinase 2

>  <activity_id>  (63) 
1467705

>  <molregno>  (63) 
312823

>  <standard_relation>  (63) 
>

>  <standard_value>  (63) 
19950.

>  <standard_units>  (63) 
nM

>  <standard_flag>  (63) 
1

>  <standard_type>  (63) 
Ki

>  <src_id (#1)>  (63) 
1

>  <type>  (63) 
Ki

>  <relation>  (63) 
>

>  <value>  (63) 
19.95

>  <units>  (63) 
uM

>  <standard_inchi_key>  (63) 
XCJVRZAQFJYFSZ-UHFFFAOYSA-N

>  <canonical_smiles>  (63) 
Fc1cc(F)cc(Nc2nccc(n2)c3c(nn4ncccc34)c5ccccc5)c1

$$$$
CHEMBL365251
     RDKit          2D

 33 37  0  0  0  0  0  0  0  0999 V2000
    3.6416    2.6410    0.0000 F   0  0  0  0  0  0  0  0  0  0  0  0
    2.7738    2.1440    0.0000 C   0  0  0  0  0  0  0  0  0  0  0  0
    2.7772    3.1440    0.0000 F   0  0  0  0  0  0  0  0  0  0  0  0
    1.7738    2.1474    0.0000 F   0  0  0  0  0  0  0  0  0  0  0  0
    3.2708    1.2762    0.0000 C   0  0  0  0  0  0  0  0  0  0  0  0
    4.2708    1.2728    0.0000 C   0  0  0  0  0  0  0  0  0  0  0  0
    4.7678    0.4052    0.0000 C   0  0  0  0  0  0  0  0  0  0  0  0
    5.7678    0.4018    0.0000 N   0  0  0  0  0  0  0  0  0  0  0  0
    6.2708    1.2660    0.0000 C   0  0  0  0  0  0  0  0  0  0  0  0
    5.7740    2.1338    0.0000 N   0  0  0  0  0  0  0  0  0  0  0  0
    6.2772    2.9980    0.0000 C   0  0  0  0  0  0  0  0  0  0  0  0
    7.2772    2.9944    0.0000 C   0  0  0  0  0  0  0  0  0  0  0  0
    7.7740    2.1266    0.0000 C   0  0  0  0  0  0  0  0  0  0  0  0
    7.2708    1.2624    0.0000 N   0  0  0  0  0  0  0  0  0  0  0  0
    8.7704    2.1230    0.0000 C   0  0  0  0  0  0  0  0  0  0  0  0
    9.3590    2.9270    0.0000 C   0  0  0  0  0  0  0  0  0  0  0  0
   10.3056    2.6158    0.0000 N   0  0  0  0  0  0  0  0  0  0  0  0
   10.3020    1.6194    0.0000 N   0  0  0  0  0  0  0  0  0  0  0  0
   11.0402    0.9500    0.0000 N   0  0  0  0  0  0  0  0  0  0  0  0
   10.8294   -0.0240    0.0000 C   0  0  0  0  0  0  0  0  0  0  0  0
    9.8806   -0.3284    0.0000 C   0  0  0  0  0  0  0  0  0  0  0  0
    9.1426    0.3410    0.0000 C   0  0  0  0  0  0  0  0  0  0  0  0
    9.3532    1.3148    0.0000 C   0  0  0  0  0  0  0  0  0  0  0  0
    9.0546    3.8758    0.0000 C   0  0  0  0  0  0  0  0  0  0  0  0
    8.0772    4.0874    0.0000 C   0  0  0  0  0  0  0  0  0  0  0  0
    7.7718    5.0396    0.0000 C   0  0  0  0  0  0  0  0  0  0  0  0
    8.4436    5.7802    0.0000 C   0  0  0  0  0  0  0  0  0  0  0  0
    9.4210    5.5686    0.0000 C   0  0  0  0  0  0  0  0  0  0  0  0
    9.7264    4.6164    0.0000 C   0  0  0  0  0  0  0  0  0  0  0  0
    4.2648   -0.4590    0.0000 C   0  0  0  0  0  0  0  0  0  0  0  0
    3.2648   -0.4556    0.0000 C   0  0  0  0  0  0  0  0  0  0  0  0
    2.7678    0.4120    0.0000 C   0  0  0  0  0  0  0  0  0  0  0  0
    1.7678    0.4154    0.0000 Cl  0  0  0  0  0  0  0  0  0  0  0  0
  1  2  1  0
  2  3  1  0
  2  4  1  0
  2  5  1  0
  5  6  2  0
  6  7  1  0
  8  9  1  0
  9 10  2  0
 10 11  1  0
 11 12  2  0
 12 13  1  0
 14  9  1  0
 13 14  2  0
 13 15  1  0
 15 16  1  0
 17 18  1  0
 18 19  1  0
 19 20  2  0
 20 21  1  0
 21 22  2  0
 23 15  2  0
 23 18  1  0
 22 23  1  0
 16 17  2  0
 16 24  1  0
 24 25  2  0
 25 26  1  0
 26 27  2  0
 27 28  1  0
 29 24  1  0
 28 29  2  0
  7  8  1  0
  7 30  2  0
 30 31  1  0
 32  5  1  0
 31 32  2  0
 32 33  1  0
M  END
>  <compound_chembl_id>  (64) 
CHEMBL365251

>  <assay_id>  (64) 
302524

>  <doc_id>  (64) 
21080

>  <description>  (64) 
Binding affinity for human cyclin-dependent kinase 2

>  <assay_organism>  (64) 
Homo sapiens

>  <assay_chembl_id>  (64) 
CHEMBL827377

>  <aidx>  (64) 
CLD0

>  <pref_name>  (64) 
Cyclin-dependent kinase 2

>  <activity_id>  (64) 
1467807

>  <molregno>  (64) 
312727

>  <standard_relation>  (64) 
>

>  <standard_value>  (64) 
19950.

>  <standard_units>  (64) 
nM

>  <standard_flag>  (64) 
1

>  <standard_type>  (64) 
Ki

>  <src_id (#1)>  (64) 
1

>  <type>  (64) 
Ki

>  <relation>  (64) 
>

>  <value>  (64) 
19.95

>  <units>  (64) 
uM

>  <standard_inchi_key>  (64) 
QDHSRCVLCZGGEA-UHFFFAOYSA-N

>  <canonical_smiles>  (64) 
FC(F)(F)c1cc(Nc2nccc(n2)c3c(nn4ncccc34)c5ccccc5)ccc1Cl

$$$$
CHEMBL363125
     RDKit          2D

 32 37  0  0  0  0  0  0  0  0999 V2000
    1.2708    1.2830    0.0000 C   0  0  0  0  0  0  0  0  0  0  0  0
    1.7740    2.1474    0.0000 C   0  0  0  0  0  0  0  0  0  0  0  0
    2.7738    2.1440    0.0000 O   0  0  0  0  0  0  0  0  0  0  0  0
    3.2708    1.2762    0.0000 C   0  0  0  0  0  0  0  0  0  0  0  0
    4.2708    1.2728    0.0000 C   0  0  0  0  0  0  0  0  0  0  0  0
    4.7678    0.4052    0.0000 C   0  0  0  0  0  0  0  0  0  0  0  0
    5.7678    0.4018    0.0000 N   0  0  0  0  0  0  0  0  0  0  0  0
    6.2708    1.2660    0.0000 C   0  0  0  0  0  0  0  0  0  0  0  0
    5.7740    2.1338    0.0000 N   0  0  0  0  0  0  0  0  0  0  0  0
    6.2772    2.9980    0.0000 C   0  0  0  0  0  0  0  0  0  0  0  0
    7.2772    2.9944    0.0000 C   0  0  0  0  0  0  0  0  0  0  0  0
    7.7740    2.1266    0.0000 C   0  0  0  0  0  0  0  0  0  0  0  0
    7.2708    1.2624    0.0000 N   0  0  0  0  0  0  0  0  0  0  0  0
    8.7704    2.1230    0.0000 C   0  0  0  0  0  0  0  0  0  0  0  0
    9.3590    2.9270    0.0000 C   0  0  0  0  0  0  0  0  0  0  0  0
   10.3056    2.6158    0.0000 N   0  0  0  0  0  0  0  0  0  0  0  0
   10.3020    1.6194    0.0000 N   0  0  0  0  0  0  0  0  0  0  0  0
   11.0402    0.9500    0.0000 N   0  0  0  0  0  0  0  0  0  0  0  0
   10.8294   -0.0240    0.0000 C   0  0  0  0  0  0  0  0  0  0  0  0
    9.8806   -0.3284    0.0000 C   0  0  0  0  0  0  0  0  0  0  0  0
    9.1426    0.3410    0.0000 C   0  0  0  0  0  0  0  0  0  0  0  0
    9.3532    1.3148    0.0000 C   0  0  0  0  0  0  0  0  0  0  0  0
    9.0546    3.8758    0.0000 C   0  0  0  0  0  0  0  0  0  0  0  0
    8.0772    4.0874    0.0000 C   0  0  0  0  0  0  0  0  0  0  0  0
    7.7718    5.0396    0.0000 C   0  0  0  0  0  0  0  0  0  0  0  0
    8.4436    5.7802    0.0000 C   0  0  0  0  0  0  0  0  0  0  0  0
    9.4210    5.5686    0.0000 C   0  0  0  0  0  0  0  0  0  0  0  0
    9.7264    4.6164    0.0000 C   0  0  0  0  0  0  0  0  0  0  0  0
    4.2648   -0.4590    0.0000 C   0  0  0  0  0  0  0  0  0  0  0  0
    3.2648   -0.4556    0.0000 C   0  0  0  0  0  0  0  0  0  0  0  0
    2.7678    0.4120    0.0000 C   0  0  0  0  0  0  0  0  0  0  0  0
    1.7678    0.4154    0.0000 O   0  0  0  0  0  0  0  0  0  0  0  0
  1  2  1  0
  2  3  1  0
  3  4  1  0
  4  5  1  0
  5  6  2  0
  7  8  1  0
  8  9  2  0
  9 10  1  0
 10 11  2  0
 11 12  1  0
 13  8  1  0
 12 13  2  0
 12 14  1  0
 14 15  1  0
 16 17  1  0
 17 18  1  0
 18 19  2  0
 19 20  1  0
 20 21  2  0
 22 14  2  0
 22 17  1  0
 21 22  1  0
 15 16  2  0
 15 23  1  0
 23 24  2  0
 24 25  1  0
 25 26  2  0
 26 27  1  0
 28 23  1  0
 27 28  2  0
  6  7  1  0
  6 29  1  0
 29 30  2  0
 31  4  2  0
 30 31  1  0
 32  1  1  0
 31 32  1  0
M  END
>  <compound_chembl_id>  (65) 
CHEMBL363125

>  <assay_id>  (65) 
302524

>  <doc_id>  (65) 
21080

>  <description>  (65) 
Binding affinity for human cyclin-dependent kinase 2

>  <assay_organism>  (65) 
Homo sapiens

>  <assay_chembl_id>  (65) 
CHEMBL827377

>  <aidx>  (65) 
CLD0

>  <pref_name>  (65) 
Cyclin-dependent kinase 2

>  <activity_id>  (65) 
1467809

>  <molregno>  (65) 
312619

>  <standard_relation>  (65) 
>

>  <standard_value>  (65) 
19950.

>  <standard_units>  (65) 
nM

>  <standard_flag>  (65) 
1

>  <standard_type>  (65) 
Ki

>  <src_id (#1)>  (65) 
1

>  <type>  (65) 
Ki

>  <relation>  (65) 
>

>  <value>  (65) 
19.95

>  <units>  (65) 
uM

>  <standard_inchi_key>  (65) 
OOFFIMNOURWPHS-UHFFFAOYSA-N

>  <canonical_smiles>  (65) 
C1COc2cc(Nc3nccc(n3)c4c(nn5ncccc45)c6ccccc6)ccc2O1

$$$$
CHEMBL186425
     RDKit          2D

 29 33  0  0  0  0  0  0  0  0999 V2000
    8.1382    6.7324    0.0000 F   0  0  0  0  0  0  0  0  0  0  0  0
    8.4436    5.7802    0.0000 C   0  0  0  0  0  0  0  0  0  0  0  0
    7.7718    5.0396    0.0000 C   0  0  0  0  0  0  0  0  0  0  0  0
    8.0772    4.0874    0.0000 C   0  0  0  0  0  0  0  0  0  0  0  0
    9.0546    3.8758    0.0000 C   0  0  0  0  0  0  0  0  0  0  0  0
    9.7264    4.6164    0.0000 C   0  0  0  0  0  0  0  0  0  0  0  0
    9.4210    5.5686    0.0000 C   0  0  0  0  0  0  0  0  0  0  0  0
    9.3590    2.9270    0.0000 C   0  0  0  0  0  0  0  0  0  0  0  0
   10.3056    2.6158    0.0000 N   0  0  0  0  0  0  0  0  0  0  0  0
   10.3020    1.6194    0.0000 N   0  0  0  0  0  0  0  0  0  0  0  0
   11.0402    0.9500    0.0000 N   0  0  0  0  0  0  0  0  0  0  0  0
   10.8294   -0.0240    0.0000 C   0  0  0  0  0  0  0  0  0  0  0  0
    9.8806   -0.3284    0.0000 C   0  0  0  0  0  0  0  0  0  0  0  0
    9.1426    0.3410    0.0000 C   0  0  0  0  0  0  0  0  0  0  0  0
    9.3532    1.3148    0.0000 C   0  0  0  0  0  0  0  0  0  0  0  0
    8.7704    2.1230    0.0000 C   0  0  0  0  0  0  0  0  0  0  0  0
    7.7740    2.1266    0.0000 C   0  0  0  0  0  0  0  0  0  0  0  0
    7.2772    2.9944    0.0000 C   0  0  0  0  0  0  0  0  0  0  0  0
    6.2772    2.9980    0.0000 C   0  0  0  0  0  0  0  0  0  0  0  0
    5.7740    2.1338    0.0000 N   0  0  0  0  0  0  0  0  0  0  0  0
    6.2708    1.2660    0.0000 C   0  0  0  0  0  0  0  0  0  0  0  0
    5.7678    0.4018    0.0000 N   0  0  0  0  0  0  0  0  0  0  0  0
    4.7678    0.4052    0.0000 C   0  0  0  0  0  0  0  0  0  0  0  0
    4.2708    1.2728    0.0000 C   0  0  0  0  0  0  0  0  0  0  0  0
    3.2708    1.2762    0.0000 C   0  0  0  0  0  0  0  0  0  0  0  0
    2.7678    0.4120    0.0000 C   0  0  0  0  0  0  0  0  0  0  0  0
    3.2648   -0.4556    0.0000 C   0  0  0  0  0  0  0  0  0  0  0  0
    4.2648   -0.4590    0.0000 C   0  0  0  0  0  0  0  0  0  0  0  0
    7.2708    1.2624    0.0000 N   0  0  0  0  0  0  0  0  0  0  0  0
  1  2  1  0
  2  3  2  0
  3  4  1  0
  4  5  2  0
  7  2  1  0
  6  7  2  0
  5  6  1  0
  5  8  1  0
  8  9  2  0
  9 10  1  0
 10 11  1  0
 11 12  2  0
 12 13  1  0
 13 14  2  0
 15 10  1  0
 14 15  1  0
 16  8  1  0
 15 16  2  0
 16 17  1  0
 17 18  2  0
 18 19  1  0
 19 20  2  0
 20 21  1  0
 22 23  1  0
 23 24  2  0
 24 25  1  0
 25 26  2  0
 26 27  1  0
 28 23  1  0
 27 28  2  0
 21 22  1  0
 29 17  1  0
 21 29  2  0
M  END
>  <compound_chembl_id>  (66) 
CHEMBL186425

>  <assay_id>  (66) 
302524

>  <doc_id>  (66) 
21080

>  <description>  (66) 
Binding affinity for human cyclin-dependent kinase 2

>  <assay_organism>  (66) 
Homo sapiens

>  <assay_chembl_id>  (66) 
CHEMBL827377

>  <aidx>  (66) 
CLD0

>  <pref_name>  (66) 
Cyclin-dependent kinase 2

>  <activity_id>  (66) 
1467814

>  <molregno>  (66) 
312999

>  <standard_relation>  (66) 
>

>  <standard_value>  (66) 
19950.

>  <standard_units>  (66) 
nM

>  <standard_flag>  (66) 
1

>  <standard_type>  (66) 
Ki

>  <src_id (#1)>  (66) 
1

>  <type>  (66) 
Ki

>  <relation>  (66) 
>

>  <value>  (66) 
19.95

>  <units>  (66) 
uM

>  <standard_inchi_key>  (66) 
WBNBKUXDNWEDOY-UHFFFAOYSA-N

>  <canonical_smiles>  (66) 
Fc1ccc(cc1)c2nn3ncccc3c2c4ccnc(Nc5ccccc5)n4

$$$$
CHEMBL189343
     RDKit          2D

 33 37  0  0  0  0  0  0  0  0999 V2000
    8.1382    6.7324    0.0000 F   0  0  0  0  0  0  0  0  0  0  0  0
    8.4436    5.7802    0.0000 C   0  0  0  0  0  0  0  0  0  0  0  0
    7.7718    5.0396    0.0000 C   0  0  0  0  0  0  0  0  0  0  0  0
    8.0772    4.0874    0.0000 C   0  0  0  0  0  0  0  0  0  0  0  0
    9.0546    3.8758    0.0000 C   0  0  0  0  0  0  0  0  0  0  0  0
    9.7264    4.6164    0.0000 C   0  0  0  0  0  0  0  0  0  0  0  0
    9.4210    5.5686    0.0000 C   0  0  0  0  0  0  0  0  0  0  0  0
    9.3590    2.9270    0.0000 C   0  0  0  0  0  0  0  0  0  0  0  0
   10.3056    2.6158    0.0000 N   0  0  0  0  0  0  0  0  0  0  0  0
   10.3020    1.6194    0.0000 N   0  0  0  0  0  0  0  0  0  0  0  0
   11.0402    0.9500    0.0000 N   0  0  0  0  0  0  0  0  0  0  0  0
   10.8294   -0.0240    0.0000 C   0  0  0  0  0  0  0  0  0  0  0  0
    9.8806   -0.3284    0.0000 C   0  0  0  0  0  0  0  0  0  0  0  0
    9.1426    0.3410    0.0000 C   0  0  0  0  0  0  0  0  0  0  0  0
    9.3532    1.3148    0.0000 C   0  0  0  0  0  0  0  0  0  0  0  0
    8.7704    2.1230    0.0000 C   0  0  0  0  0  0  0  0  0  0  0  0
    7.7740    2.1266    0.0000 C   0  0  0  0  0  0  0  0  0  0  0  0
    7.2772    2.9944    0.0000 C   0  0  0  0  0  0  0  0  0  0  0  0
    6.2772    2.9980    0.0000 C   0  0  0  0  0  0  0  0  0  0  0  0
    5.7740    2.1338    0.0000 N   0  0  0  0  0  0  0  0  0  0  0  0
    6.2708    1.2660    0.0000 C   0  0  0  0  0  0  0  0  0  0  0  0
    5.7678    0.4018    0.0000 N   0  0  0  0  0  0  0  0  0  0  0  0
    4.7678    0.4052    0.0000 C   0  0  0  0  0  0  0  0  0  0  0  0
    4.2708    1.2728    0.0000 C   0  0  0  0  0  0  0  0  0  0  0  0
    3.2708    1.2762    0.0000 C   0  0  0  0  0  0  0  0  0  0  0  0
    2.7678    0.4120    0.0000 C   0  0  0  0  0  0  0  0  0  0  0  0
    3.2648   -0.4556    0.0000 C   0  0  0  0  0  0  0  0  0  0  0  0
    4.2648   -0.4590    0.0000 C   0  0  0  0  0  0  0  0  0  0  0  0
    2.7620   -1.3200    0.0000 C   0  0  0  0  0  0  0  0  0  0  0  0
    3.6264   -1.8228    0.0000 F   0  0  0  0  0  0  0  0  0  0  0  0
    2.7588   -2.3200    0.0000 F   0  0  0  0  0  0  0  0  0  0  0  0
    1.7620   -1.3168    0.0000 F   0  0  0  0  0  0  0  0  0  0  0  0
    7.2708    1.2624    0.0000 N   0  0  0  0  0  0  0  0  0  0  0  0
  1  2  1  0
  2  3  2  0
  3  4  1  0
  4  5  2  0
  7  2  1  0
  6  7  2  0
  5  6  1  0
  5  8  1  0
  8  9  2  0
  9 10  1  0
 10 11  1  0
 11 12  2  0
 12 13  1  0
 13 14  2  0
 15 10  1  0
 14 15  1  0
 16  8  1  0
 15 16  2  0
 16 17  1  0
 17 18  2  0
 18 19  1  0
 19 20  2  0
 20 21  1  0
 22 23  1  0
 23 24  2  0
 24 25  1  0
 25 26  2  0
 26 27  1  0
 28 23  1  0
 27 28  2  0
 27 29  1  0
 29 30  1  0
 29 31  1  0
 29 32  1  0
 21 22  1  0
 33 17  1  0
 21 33  2  0
M  END
>  <compound_chembl_id>  (67) 
CHEMBL189343

>  <assay_id>  (67) 
302524

>  <doc_id>  (67) 
21080

>  <description>  (67) 
Binding affinity for human cyclin-dependent kinase 2

>  <assay_organism>  (67) 
Homo sapiens

>  <assay_chembl_id>  (67) 
CHEMBL827377

>  <aidx>  (67) 
CLD0

>  <pref_name>  (67) 
Cyclin-dependent kinase 2

>  <activity_id>  (67) 
1467816

>  <molregno>  (67) 
313263

>  <standard_relation>  (67) 
>

>  <standard_value>  (67) 
19950.

>  <standard_units>  (67) 
nM

>  <standard_flag>  (67) 
1

>  <standard_type>  (67) 
Ki

>  <src_id (#1)>  (67) 
1

>  <type>  (67) 
Ki

>  <relation>  (67) 
>

>  <value>  (67) 
19.95

>  <units>  (67) 
uM

>  <standard_inchi_key>  (67) 
UPZQSWMQDHIVQJ-UHFFFAOYSA-N

>  <canonical_smiles>  (67) 
Fc1ccc(cc1)c2nn3ncccc3c2c4ccnc(Nc5cccc(c5)C(F)(F)F)n4

$$$$
CHEMBL186166
     RDKit          2D

 31 35  0  0  0  0  0  0  0  0999 V2000
    8.1382    6.7324    0.0000 F   0  0  0  0  0  0  0  0  0  0  0  0
    8.4436    5.7802    0.0000 C   0  0  0  0  0  0  0  0  0  0  0  0
    7.7718    5.0396    0.0000 C   0  0  0  0  0  0  0  0  0  0  0  0
    8.0772    4.0874    0.0000 C   0  0  0  0  0  0  0  0  0  0  0  0
    9.0546    3.8758    0.0000 C   0  0  0  0  0  0  0  0  0  0  0  0
    9.7264    4.6164    0.0000 C   0  0  0  0  0  0  0  0  0  0  0  0
    9.4210    5.5686    0.0000 C   0  0  0  0  0  0  0  0  0  0  0  0
    9.3590    2.9270    0.0000 C   0  0  0  0  0  0  0  0  0  0  0  0
   10.3056    2.6158    0.0000 N   0  0  0  0  0  0  0  0  0  0  0  0
   10.3020    1.6194    0.0000 N   0  0  0  0  0  0  0  0  0  0  0  0
   11.0402    0.9500    0.0000 N   0  0  0  0  0  0  0  0  0  0  0  0
   10.8294   -0.0240    0.0000 C   0  0  0  0  0  0  0  0  0  0  0  0
    9.8806   -0.3284    0.0000 C   0  0  0  0  0  0  0  0  0  0  0  0
    9.1426    0.3410    0.0000 C   0  0  0  0  0  0  0  0  0  0  0  0
    9.3532    1.3148    0.0000 C   0  0  0  0  0  0  0  0  0  0  0  0
    8.7704    2.1230    0.0000 C   0  0  0  0  0  0  0  0  0  0  0  0
    7.7740    2.1266    0.0000 C   0  0  0  0  0  0  0  0  0  0  0  0
    7.2772    2.9944    0.0000 C   0  0  0  0  0  0  0  0  0  0  0  0
    6.2772    2.9980    0.0000 C   0  0  0  0  0  0  0  0  0  0  0  0
    5.7740    2.1338    0.0000 N   0  0  0  0  0  0  0  0  0  0  0  0
    6.2708    1.2660    0.0000 C   0  0  0  0  0  0  0  0  0  0  0  0
    5.7678    0.4018    0.0000 N   0  0  0  0  0  0  0  0  0  0  0  0
    4.7678    0.4052    0.0000 C   0  0  0  0  0  0  0  0  0  0  0  0
    4.2708    1.2728    0.0000 C   0  0  0  0  0  0  0  0  0  0  0  0
    3.2708    1.2762    0.0000 C   0  0  0  0  0  0  0  0  0  0  0  0
    2.7678    0.4120    0.0000 C   0  0  0  0  0  0  0  0  0  0  0  0
    1.7678    0.4154    0.0000 F   0  0  0  0  0  0  0  0  0  0  0  0
    3.2648   -0.4556    0.0000 C   0  0  0  0  0  0  0  0  0  0  0  0
    2.7620   -1.3200    0.0000 F   0  0  0  0  0  0  0  0  0  0  0  0
    4.2648   -0.4590    0.0000 C   0  0  0  0  0  0  0  0  0  0  0  0
    7.2708    1.2624    0.0000 N   0  0  0  0  0  0  0  0  0  0  0  0
  1  2  1  0
  2  3  2  0
  3  4  1  0
  4  5  2  0
  7  2  1  0
  6  7  2  0
  5  6  1  0
  5  8  1  0
  8  9  2  0
  9 10  1  0
 10 11  1  0
 11 12  2  0
 12 13  1  0
 13 14  2  0
 15 10  1  0
 14 15  1  0
 16  8  1  0
 15 16  2  0
 16 17  1  0
 17 18  2  0
 18 19  1  0
 19 20  2  0
 20 21  1  0
 22 23  1  0
 23 24  2  0
 24 25  1  0
 25 26  2  0
 26 27  1  0
 26 28  1  0
 28 29  1  0
 30 23  1  0
 28 30  2  0
 21 22  1  0
 31 17  1  0
 21 31  2  0
M  END
>  <compound_chembl_id>  (68) 
CHEMBL186166

>  <assay_id>  (68) 
302524

>  <doc_id>  (68) 
21080

>  <description>  (68) 
Binding affinity for human cyclin-dependent kinase 2

>  <assay_organism>  (68) 
Homo sapiens

>  <assay_chembl_id>  (68) 
CHEMBL827377

>  <aidx>  (68) 
CLD0

>  <pref_name>  (68) 
Cyclin-dependent kinase 2

>  <activity_id>  (68) 
1467820

>  <molregno>  (68) 
313032

>  <standard_relation>  (68) 
>

>  <standard_value>  (68) 
19950.

>  <standard_units>  (68) 
nM

>  <standard_flag>  (68) 
1

>  <standard_type>  (68) 
Ki

>  <src_id (#1)>  (68) 
1

>  <type>  (68) 
Ki

>  <relation>  (68) 
>

>  <value>  (68) 
19.95

>  <units>  (68) 
uM

>  <standard_inchi_key>  (68) 
OHAQDYMEPKKRBF-UHFFFAOYSA-N

>  <canonical_smiles>  (68) 
Fc1ccc(cc1)c2nn3ncccc3c2c4ccnc(Nc5ccc(F)c(F)c5)n4

$$$$
CHEMBL189288
     RDKit          2D

 34 38  0  0  0  0  0  0  0  0999 V2000
    8.1382    6.7324    0.0000 F   0  0  0  0  0  0  0  0  0  0  0  0
    8.4436    5.7802    0.0000 C   0  0  0  0  0  0  0  0  0  0  0  0
    7.7718    5.0396    0.0000 C   0  0  0  0  0  0  0  0  0  0  0  0
    8.0772    4.0874    0.0000 C   0  0  0  0  0  0  0  0  0  0  0  0
    9.0546    3.8758    0.0000 C   0  0  0  0  0  0  0  0  0  0  0  0
    9.7264    4.6164    0.0000 C   0  0  0  0  0  0  0  0  0  0  0  0
    9.4210    5.5686    0.0000 C   0  0  0  0  0  0  0  0  0  0  0  0
    9.3590    2.9270    0.0000 C   0  0  0  0  0  0  0  0  0  0  0  0
   10.3056    2.6158    0.0000 N   0  0  0  0  0  0  0  0  0  0  0  0
   10.3020    1.6194    0.0000 N   0  0  0  0  0  0  0  0  0  0  0  0
   11.0402    0.9500    0.0000 N   0  0  0  0  0  0  0  0  0  0  0  0
   10.8294   -0.0240    0.0000 C   0  0  0  0  0  0  0  0  0  0  0  0
    9.8806   -0.3284    0.0000 C   0  0  0  0  0  0  0  0  0  0  0  0
    9.1426    0.3410    0.0000 C   0  0  0  0  0  0  0  0  0  0  0  0
    9.3532    1.3148    0.0000 C   0  0  0  0  0  0  0  0  0  0  0  0
    8.7704    2.1230    0.0000 C   0  0  0  0  0  0  0  0  0  0  0  0
    7.7740    2.1266    0.0000 C   0  0  0  0  0  0  0  0  0  0  0  0
    7.2772    2.9944    0.0000 C   0  0  0  0  0  0  0  0  0  0  0  0
    6.2772    2.9980    0.0000 C   0  0  0  0  0  0  0  0  0  0  0  0
    5.7740    2.1338    0.0000 N   0  0  0  0  0  0  0  0  0  0  0  0
    6.2708    1.2660    0.0000 C   0  0  0  0  0  0  0  0  0  0  0  0
    5.7678    0.4018    0.0000 N   0  0  0  0  0  0  0  0  0  0  0  0
    4.7678    0.4052    0.0000 C   0  0  0  0  0  0  0  0  0  0  0  0
    4.2708    1.2728    0.0000 C   0  0  0  0  0  0  0  0  0  0  0  0
    3.2708    1.2762    0.0000 C   0  0  0  0  0  0  0  0  0  0  0  0
    2.7678    0.4120    0.0000 C   0  0  0  0  0  0  0  0  0  0  0  0
    1.7678    0.4154    0.0000 Cl  0  0  0  0  0  0  0  0  0  0  0  0
    3.2648   -0.4556    0.0000 C   0  0  0  0  0  0  0  0  0  0  0  0
    4.2648   -0.4590    0.0000 C   0  0  0  0  0  0  0  0  0  0  0  0
    2.7620   -1.3200    0.0000 C   0  0  0  0  0  0  0  0  0  0  0  0
    3.6264   -1.8228    0.0000 F   0  0  0  0  0  0  0  0  0  0  0  0
    2.7588   -2.3200    0.0000 F   0  0  0  0  0  0  0  0  0  0  0  0
    1.7620   -1.3168    0.0000 F   0  0  0  0  0  0  0  0  0  0  0  0
    7.2708    1.2624    0.0000 N   0  0  0  0  0  0  0  0  0  0  0  0
  1  2  1  0
  2  3  2  0
  3  4  1  0
  4  5  2  0
  7  2  1  0
  6  7  2  0
  5  6  1  0
  5  8  1  0
  8  9  2  0
  9 10  1  0
 10 11  1  0
 11 12  2  0
 12 13  1  0
 13 14  2  0
 15 10  1  0
 14 15  1  0
 16  8  1  0
 15 16  2  0
 16 17  1  0
 17 18  2  0
 18 19  1  0
 19 20  2  0
 20 21  1  0
 22 23  1  0
 23 24  2  0
 24 25  1  0
 25 26  2  0
 26 27  1  0
 26 28  1  0
 29 23  1  0
 28 29  2  0
 28 30  1  0
 30 31  1  0
 30 32  1  0
 30 33  1  0
 21 22  1  0
 34 17  1  0
 21 34  2  0
M  END
>  <compound_chembl_id>  (69) 
CHEMBL189288

>  <assay_id>  (69) 
302524

>  <doc_id>  (69) 
21080

>  <description>  (69) 
Binding affinity for human cyclin-dependent kinase 2

>  <assay_organism>  (69) 
Homo sapiens

>  <assay_chembl_id>  (69) 
CHEMBL827377

>  <aidx>  (69) 
CLD0

>  <pref_name>  (69) 
Cyclin-dependent kinase 2

>  <activity_id>  (69) 
1467822

>  <molregno>  (69) 
313326

>  <standard_relation>  (69) 
>

>  <standard_value>  (69) 
19950.

>  <standard_units>  (69) 
nM

>  <standard_flag>  (69) 
1

>  <standard_type>  (69) 
Ki

>  <src_id (#1)>  (69) 
1

>  <type>  (69) 
Ki

>  <relation>  (69) 
>

>  <value>  (69) 
19.95

>  <units>  (69) 
uM

>  <standard_inchi_key>  (69) 
OFLZPIHQIBEOQU-UHFFFAOYSA-N

>  <canonical_smiles>  (69) 
Fc1ccc(cc1)c2nn3ncccc3c2c4ccnc(Nc5ccc(Cl)c(c5)C(F)(F)F)n4

$$$$
CHEMBL365297
     RDKit          2D

 33 38  0  0  0  0  0  0  0  0999 V2000
    8.1382    6.7324    0.0000 F   0  0  0  0  0  0  0  0  0  0  0  0
    8.4436    5.7802    0.0000 C   0  0  0  0  0  0  0  0  0  0  0  0
    7.7718    5.0396    0.0000 C   0  0  0  0  0  0  0  0  0  0  0  0
    8.0772    4.0874    0.0000 C   0  0  0  0  0  0  0  0  0  0  0  0
    9.0546    3.8758    0.0000 C   0  0  0  0  0  0  0  0  0  0  0  0
    9.7264    4.6164    0.0000 C   0  0  0  0  0  0  0  0  0  0  0  0
    9.4210    5.5686    0.0000 C   0  0  0  0  0  0  0  0  0  0  0  0
    9.3590    2.9270    0.0000 C   0  0  0  0  0  0  0  0  0  0  0  0
   10.3056    2.6158    0.0000 N   0  0  0  0  0  0  0  0  0  0  0  0
   10.3020    1.6194    0.0000 N   0  0  0  0  0  0  0  0  0  0  0  0
   11.0402    0.9500    0.0000 N   0  0  0  0  0  0  0  0  0  0  0  0
   10.8294   -0.0240    0.0000 C   0  0  0  0  0  0  0  0  0  0  0  0
    9.8806   -0.3284    0.0000 C   0  0  0  0  0  0  0  0  0  0  0  0
    9.1426    0.3410    0.0000 C   0  0  0  0  0  0  0  0  0  0  0  0
    9.3532    1.3148    0.0000 C   0  0  0  0  0  0  0  0  0  0  0  0
    8.7704    2.1230    0.0000 C   0  0  0  0  0  0  0  0  0  0  0  0
    7.7740    2.1266    0.0000 C   0  0  0  0  0  0  0  0  0  0  0  0
    7.2772    2.9944    0.0000 C   0  0  0  0  0  0  0  0  0  0  0  0
    6.2772    2.9980    0.0000 C   0  0  0  0  0  0  0  0  0  0  0  0
    5.7740    2.1338    0.0000 N   0  0  0  0  0  0  0  0  0  0  0  0
    6.2708    1.2660    0.0000 C   0  0  0  0  0  0  0  0  0  0  0  0
    5.7678    0.4018    0.0000 N   0  0  0  0  0  0  0  0  0  0  0  0
    4.7678    0.4052    0.0000 C   0  0  0  0  0  0  0  0  0  0  0  0
    4.2708    1.2728    0.0000 C   0  0  0  0  0  0  0  0  0  0  0  0
    3.2708    1.2762    0.0000 C   0  0  0  0  0  0  0  0  0  0  0  0
    2.7678    0.4120    0.0000 C   0  0  0  0  0  0  0  0  0  0  0  0
    1.7678    0.4154    0.0000 O   0  0  0  0  0  0  0  0  0  0  0  0
    1.2648   -0.4488    0.0000 C   0  0  0  0  0  0  0  0  0  0  0  0
    1.7622   -1.3166    0.0000 C   0  0  0  0  0  0  0  0  0  0  0  0
    2.7620   -1.3200    0.0000 O   0  0  0  0  0  0  0  0  0  0  0  0
    3.2648   -0.4556    0.0000 C   0  0  0  0  0  0  0  0  0  0  0  0
    4.2648   -0.4590    0.0000 C   0  0  0  0  0  0  0  0  0  0  0  0
    7.2708    1.2624    0.0000 N   0  0  0  0  0  0  0  0  0  0  0  0
  1  2  1  0
  2  3  2  0
  3  4  1  0
  4  5  2  0
  7  2  1  0
  6  7  2  0
  5  6  1  0
  5  8  1  0
  8  9  2  0
  9 10  1  0
 10 11  1  0
 11 12  2  0
 12 13  1  0
 13 14  2  0
 15 10  1  0
 14 15  1  0
 16  8  1  0
 15 16  2  0
 16 17  1  0
 17 18  2  0
 18 19  1  0
 19 20  2  0
 20 21  1  0
 22 23  1  0
 23 24  2  0
 24 25  1  0
 25 26  2  0
 26 27  1  0
 27 28  1  0
 28 29  1  0
 29 30  1  0
 31 26  1  0
 30 31  1  0
 32 23  1  0
 31 32  2  0
 21 22  1  0
 33 17  1  0
 21 33  2  0
M  END
>  <compound_chembl_id>  (70) 
CHEMBL365297

>  <assay_id>  (70) 
302524

>  <doc_id>  (70) 
21080

>  <description>  (70) 
Binding affinity for human cyclin-dependent kinase 2

>  <assay_organism>  (70) 
Homo sapiens

>  <assay_chembl_id>  (70) 
CHEMBL827377

>  <aidx>  (70) 
CLD0

>  <pref_name>  (70) 
Cyclin-dependent kinase 2

>  <activity_id>  (70) 
1467824

>  <molregno>  (70) 
313134

>  <standard_relation>  (70) 
>

>  <standard_value>  (70) 
19950.

>  <standard_units>  (70) 
nM

>  <standard_flag>  (70) 
1

>  <standard_type>  (70) 
Ki

>  <src_id (#1)>  (70) 
1

>  <type>  (70) 
Ki

>  <relation>  (70) 
>

>  <value>  (70) 
19.95

>  <units>  (70) 
uM

>  <standard_inchi_key>  (70) 
VCIUEFSUNSUNPA-UHFFFAOYSA-N

>  <canonical_smiles>  (70) 
Fc1ccc(cc1)c2nn3ncccc3c2c4ccnc(Nc5ccc6OCCOc6c5)n4

$$$$
CHEMBL186116
     RDKit          2D

 30 34  0  0  0  0  0  0  0  0999 V2000
    7.1608    6.9440    0.0000 C   0  0  0  0  0  0  0  0  0  0  0  0
    8.1382    6.7324    0.0000 O   0  0  0  0  0  0  0  0  0  0  0  0
    8.4436    5.7802    0.0000 C   0  0  0  0  0  0  0  0  0  0  0  0
    7.7718    5.0396    0.0000 C   0  0  0  0  0  0  0  0  0  0  0  0
    8.0772    4.0874    0.0000 C   0  0  0  0  0  0  0  0  0  0  0  0
    9.0546    3.8758    0.0000 C   0  0  0  0  0  0  0  0  0  0  0  0
    9.7264    4.6164    0.0000 C   0  0  0  0  0  0  0  0  0  0  0  0
    9.4210    5.5686    0.0000 C   0  0  0  0  0  0  0  0  0  0  0  0
    9.3590    2.9270    0.0000 C   0  0  0  0  0  0  0  0  0  0  0  0
   10.3056    2.6158    0.0000 N   0  0  0  0  0  0  0  0  0  0  0  0
   10.3020    1.6194    0.0000 N   0  0  0  0  0  0  0  0  0  0  0  0
   11.0402    0.9500    0.0000 N   0  0  0  0  0  0  0  0  0  0  0  0
   10.8294   -0.0240    0.0000 C   0  0  0  0  0  0  0  0  0  0  0  0
    9.8806   -0.3284    0.0000 C   0  0  0  0  0  0  0  0  0  0  0  0
    9.1426    0.3410    0.0000 C   0  0  0  0  0  0  0  0  0  0  0  0
    9.3532    1.3148    0.0000 C   0  0  0  0  0  0  0  0  0  0  0  0
    8.7704    2.1230    0.0000 C   0  0  0  0  0  0  0  0  0  0  0  0
    7.7740    2.1266    0.0000 C   0  0  0  0  0  0  0  0  0  0  0  0
    7.2772    2.9944    0.0000 C   0  0  0  0  0  0  0  0  0  0  0  0
    6.2772    2.9980    0.0000 C   0  0  0  0  0  0  0  0  0  0  0  0
    5.7740    2.1338    0.0000 N   0  0  0  0  0  0  0  0  0  0  0  0
    6.2708    1.2660    0.0000 C   0  0  0  0  0  0  0  0  0  0  0  0
    5.7678    0.4018    0.0000 N   0  0  0  0  0  0  0  0  0  0  0  0
    4.7678    0.4052    0.0000 C   0  0  0  0  0  0  0  0  0  0  0  0
    4.2708    1.2728    0.0000 C   0  0  0  0  0  0  0  0  0  0  0  0
    3.2708    1.2762    0.0000 C   0  0  0  0  0  0  0  0  0  0  0  0
    2.7678    0.4120    0.0000 C   0  0  0  0  0  0  0  0  0  0  0  0
    3.2648   -0.4556    0.0000 C   0  0  0  0  0  0  0  0  0  0  0  0
    4.2648   -0.4590    0.0000 C   0  0  0  0  0  0  0  0  0  0  0  0
    7.2708    1.2624    0.0000 N   0  0  0  0  0  0  0  0  0  0  0  0
  1  2  1  0
  2  3  1  0
  3  4  2  0
  4  5  1  0
  5  6  2  0
  8  3  1  0
  7  8  2  0
  6  7  1  0
  6  9  1  0
  9 10  2  0
 10 11  1  0
 11 12  1  0
 12 13  2  0
 13 14  1  0
 14 15  2  0
 16 11  1  0
 15 16  1  0
 17  9  1  0
 16 17  2  0
 17 18  1  0
 18 19  2  0
 19 20  1  0
 20 21  2  0
 21 22  1  0
 23 24  1  0
 24 25  2  0
 25 26  1  0
 26 27  2  0
 27 28  1  0
 29 24  1  0
 28 29  2  0
 22 23  1  0
 30 18  1  0
 22 30  2  0
M  END
>  <compound_chembl_id>  (71) 
CHEMBL186116

>  <assay_id>  (71) 
302524

>  <doc_id>  (71) 
21080

>  <description>  (71) 
Binding affinity for human cyclin-dependent kinase 2

>  <assay_organism>  (71) 
Homo sapiens

>  <assay_chembl_id>  (71) 
CHEMBL827377

>  <aidx>  (71) 
CLD0

>  <pref_name>  (71) 
Cyclin-dependent kinase 2

>  <activity_id>  (71) 
1467826

>  <molregno>  (71) 
312913

>  <standard_relation>  (71) 
>

>  <standard_value>  (71) 
19950.

>  <standard_units>  (71) 
nM

>  <standard_flag>  (71) 
1

>  <standard_type>  (71) 
Ki

>  <src_id (#1)>  (71) 
1

>  <type>  (71) 
Ki

>  <relation>  (71) 
>

>  <value>  (71) 
19.95

>  <units>  (71) 
uM

>  <standard_inchi_key>  (71) 
PEMHCZSZBZRPLA-UHFFFAOYSA-N

>  <canonical_smiles>  (71) 
COc1ccc(cc1)c2nn3ncccc3c2c4ccnc(Nc5ccccc5)n4

$$$$
CHEMBL186213
     RDKit          2D

 34 38  0  0  0  0  0  0  0  0999 V2000
    7.1608    6.9440    0.0000 C   0  0  0  0  0  0  0  0  0  0  0  0
    8.1382    6.7324    0.0000 O   0  0  0  0  0  0  0  0  0  0  0  0
    8.4436    5.7802    0.0000 C   0  0  0  0  0  0  0  0  0  0  0  0
    7.7718    5.0396    0.0000 C   0  0  0  0  0  0  0  0  0  0  0  0
    8.0772    4.0874    0.0000 C   0  0  0  0  0  0  0  0  0  0  0  0
    9.0546    3.8758    0.0000 C   0  0  0  0  0  0  0  0  0  0  0  0
    9.7264    4.6164    0.0000 C   0  0  0  0  0  0  0  0  0  0  0  0
    9.4210    5.5686    0.0000 C   0  0  0  0  0  0  0  0  0  0  0  0
    9.3590    2.9270    0.0000 C   0  0  0  0  0  0  0  0  0  0  0  0
   10.3056    2.6158    0.0000 N   0  0  0  0  0  0  0  0  0  0  0  0
   10.3020    1.6194    0.0000 N   0  0  0  0  0  0  0  0  0  0  0  0
   11.0402    0.9500    0.0000 N   0  0  0  0  0  0  0  0  0  0  0  0
   10.8294   -0.0240    0.0000 C   0  0  0  0  0  0  0  0  0  0  0  0
    9.8806   -0.3284    0.0000 C   0  0  0  0  0  0  0  0  0  0  0  0
    9.1426    0.3410    0.0000 C   0  0  0  0  0  0  0  0  0  0  0  0
    9.3532    1.3148    0.0000 C   0  0  0  0  0  0  0  0  0  0  0  0
    8.7704    2.1230    0.0000 C   0  0  0  0  0  0  0  0  0  0  0  0
    7.7740    2.1266    0.0000 C   0  0  0  0  0  0  0  0  0  0  0  0
    7.2772    2.9944    0.0000 C   0  0  0  0  0  0  0  0  0  0  0  0
    6.2772    2.9980    0.0000 C   0  0  0  0  0  0  0  0  0  0  0  0
    5.7740    2.1338    0.0000 N   0  0  0  0  0  0  0  0  0  0  0  0
    6.2708    1.2660    0.0000 C   0  0  0  0  0  0  0  0  0  0  0  0
    5.7678    0.4018    0.0000 N   0  0  0  0  0  0  0  0  0  0  0  0
    4.7678    0.4052    0.0000 C   0  0  0  0  0  0  0  0  0  0  0  0
    4.2708    1.2728    0.0000 C   0  0  0  0  0  0  0  0  0  0  0  0
    3.2708    1.2762    0.0000 C   0  0  0  0  0  0  0  0  0  0  0  0
    2.7678    0.4120    0.0000 C   0  0  0  0  0  0  0  0  0  0  0  0
    3.2648   -0.4556    0.0000 C   0  0  0  0  0  0  0  0  0  0  0  0
    4.2648   -0.4590    0.0000 C   0  0  0  0  0  0  0  0  0  0  0  0
    2.7620   -1.3200    0.0000 C   0  0  0  0  0  0  0  0  0  0  0  0
    3.6264   -1.8228    0.0000 F   0  0  0  0  0  0  0  0  0  0  0  0
    2.7588   -2.3200    0.0000 F   0  0  0  0  0  0  0  0  0  0  0  0
    1.7620   -1.3168    0.0000 F   0  0  0  0  0  0  0  0  0  0  0  0
    7.2708    1.2624    0.0000 N   0  0  0  0  0  0  0  0  0  0  0  0
  1  2  1  0
  2  3  1  0
  3  4  2  0
  4  5  1  0
  5  6  2  0
  8  3  1  0
  7  8  2  0
  6  7  1  0
  6  9  1  0
  9 10  2  0
 10 11  1  0
 11 12  1  0
 12 13  2  0
 13 14  1  0
 14 15  2  0
 16 11  1  0
 15 16  1  0
 17  9  1  0
 16 17  2  0
 17 18  1  0
 18 19  2  0
 19 20  1  0
 20 21  2  0
 21 22  1  0
 23 24  1  0
 24 25  2  0
 25 26  1  0
 26 27  2  0
 27 28  1  0
 29 24  1  0
 28 29  2  0
 28 30  1  0
 30 31  1  0
 30 32  1  0
 30 33  1  0
 22 23  1  0
 34 18  1  0
 22 34  2  0
M  END
>  <compound_chembl_id>  (72) 
CHEMBL186213

>  <assay_id>  (72) 
302524

>  <doc_id>  (72) 
21080

>  <description>  (72) 
Binding affinity for human cyclin-dependent kinase 2

>  <assay_organism>  (72) 
Homo sapiens

>  <assay_chembl_id>  (72) 
CHEMBL827377

>  <aidx>  (72) 
CLD0

>  <pref_name>  (72) 
Cyclin-dependent kinase 2

>  <activity_id>  (72) 
1467828

>  <molregno>  (72) 
313203

>  <standard_relation>  (72) 
>

>  <standard_value>  (72) 
19950.

>  <standard_units>  (72) 
nM

>  <standard_flag>  (72) 
1

>  <standard_type>  (72) 
Ki

>  <src_id (#1)>  (72) 
1

>  <type>  (72) 
Ki

>  <relation>  (72) 
>

>  <value>  (72) 
19.95

>  <units>  (72) 
uM

>  <standard_inchi_key>  (72) 
BWBYKJFTJZIURF-UHFFFAOYSA-N

>  <canonical_smiles>  (72) 
COc1ccc(cc1)c2nn3ncccc3c2c4ccnc(Nc5cccc(c5)C(F)(F)F)n4

$$$$
CHEMBL427159
     RDKit          2D

 32 36  0  0  0  0  0  0  0  0999 V2000
    7.1608    6.9440    0.0000 C   0  0  0  0  0  0  0  0  0  0  0  0
    8.1382    6.7324    0.0000 O   0  0  0  0  0  0  0  0  0  0  0  0
    8.4436    5.7802    0.0000 C   0  0  0  0  0  0  0  0  0  0  0  0
    7.7718    5.0396    0.0000 C   0  0  0  0  0  0  0  0  0  0  0  0
    8.0772    4.0874    0.0000 C   0  0  0  0  0  0  0  0  0  0  0  0
    9.0546    3.8758    0.0000 C   0  0  0  0  0  0  0  0  0  0  0  0
    9.7264    4.6164    0.0000 C   0  0  0  0  0  0  0  0  0  0  0  0
    9.4210    5.5686    0.0000 C   0  0  0  0  0  0  0  0  0  0  0  0
    9.3590    2.9270    0.0000 C   0  0  0  0  0  0  0  0  0  0  0  0
   10.3056    2.6158    0.0000 N   0  0  0  0  0  0  0  0  0  0  0  0
   10.3020    1.6194    0.0000 N   0  0  0  0  0  0  0  0  0  0  0  0
   11.0402    0.9500    0.0000 N   0  0  0  0  0  0  0  0  0  0  0  0
   10.8294   -0.0240    0.0000 C   0  0  0  0  0  0  0  0  0  0  0  0
    9.8806   -0.3284    0.0000 C   0  0  0  0  0  0  0  0  0  0  0  0
    9.1426    0.3410    0.0000 C   0  0  0  0  0  0  0  0  0  0  0  0
    9.3532    1.3148    0.0000 C   0  0  0  0  0  0  0  0  0  0  0  0
    8.7704    2.1230    0.0000 C   0  0  0  0  0  0  0  0  0  0  0  0
    7.7740    2.1266    0.0000 C   0  0  0  0  0  0  0  0  0  0  0  0
    7.2772    2.9944    0.0000 C   0  0  0  0  0  0  0  0  0  0  0  0
    6.2772    2.9980    0.0000 C   0  0  0  0  0  0  0  0  0  0  0  0
    5.7740    2.1338    0.0000 N   0  0  0  0  0  0  0  0  0  0  0  0
    6.2708    1.2660    0.0000 C   0  0  0  0  0  0  0  0  0  0  0  0
    5.7678    0.4018    0.0000 N   0  0  0  0  0  0  0  0  0  0  0  0
    4.7678    0.4052    0.0000 C   0  0  0  0  0  0  0  0  0  0  0  0
    4.2708    1.2728    0.0000 C   0  0  0  0  0  0  0  0  0  0  0  0
    3.2708    1.2762    0.0000 C   0  0  0  0  0  0  0  0  0  0  0  0
    2.7678    0.4120    0.0000 C   0  0  0  0  0  0  0  0  0  0  0  0
    1.7678    0.4154    0.0000 F   0  0  0  0  0  0  0  0  0  0  0  0
    3.2648   -0.4556    0.0000 C   0  0  0  0  0  0  0  0  0  0  0  0
    2.7620   -1.3200    0.0000 F   0  0  0  0  0  0  0  0  0  0  0  0
    4.2648   -0.4590    0.0000 C   0  0  0  0  0  0  0  0  0  0  0  0
    7.2708    1.2624    0.0000 N   0  0  0  0  0  0  0  0  0  0  0  0
  1  2  1  0
  2  3  1  0
  3  4  2  0
  4  5  1  0
  5  6  2  0
  8  3  1  0
  7  8  2  0
  6  7  1  0
  6  9  1  0
  9 10  2  0
 10 11  1  0
 11 12  1  0
 12 13  2  0
 13 14  1  0
 14 15  2  0
 16 11  1  0
 15 16  1  0
 17  9  1  0
 16 17  2  0
 17 18  1  0
 18 19  2  0
 19 20  1  0
 20 21  2  0
 21 22  1  0
 23 24  1  0
 24 25  2  0
 25 26  1  0
 26 27  2  0
 27 28  1  0
 27 29  1  0
 29 30  1  0
 31 24  1  0
 29 31  2  0
 22 23  1  0
 32 18  1  0
 22 32  2  0
M  END
>  <compound_chembl_id>  (73) 
CHEMBL427159

>  <assay_id>  (73) 
302524

>  <doc_id>  (73) 
21080

>  <description>  (73) 
Binding affinity for human cyclin-dependent kinase 2

>  <assay_organism>  (73) 
Homo sapiens

>  <assay_chembl_id>  (73) 
CHEMBL827377

>  <aidx>  (73) 
CLD0

>  <pref_name>  (73) 
Cyclin-dependent kinase 2

>  <activity_id>  (73) 
1467830

>  <molregno>  (73) 
313007

>  <standard_relation>  (73) 
>

>  <standard_value>  (73) 
19950.

>  <standard_units>  (73) 
nM

>  <standard_flag>  (73) 
1

>  <standard_type>  (73) 
Ki

>  <src_id (#1)>  (73) 
1

>  <type>  (73) 
Ki

>  <relation>  (73) 
>

>  <value>  (73) 
19.95

>  <units>  (73) 
uM

>  <standard_inchi_key>  (73) 
LKJHBVBZNPEUNP-UHFFFAOYSA-N

>  <canonical_smiles>  (73) 
COc1ccc(cc1)c2nn3ncccc3c2c4ccnc(Nc5ccc(F)c(F)c5)n4

$$$$
CHEMBL188794
     RDKit          2D

 35 39  0  0  0  0  0  0  0  0999 V2000
    7.1608    6.9440    0.0000 C   0  0  0  0  0  0  0  0  0  0  0  0
    8.1382    6.7324    0.0000 O   0  0  0  0  0  0  0  0  0  0  0  0
    8.4436    5.7802    0.0000 C   0  0  0  0  0  0  0  0  0  0  0  0
    7.7718    5.0396    0.0000 C   0  0  0  0  0  0  0  0  0  0  0  0
    8.0772    4.0874    0.0000 C   0  0  0  0  0  0  0  0  0  0  0  0
    9.0546    3.8758    0.0000 C   0  0  0  0  0  0  0  0  0  0  0  0
    9.7264    4.6164    0.0000 C   0  0  0  0  0  0  0  0  0  0  0  0
    9.4210    5.5686    0.0000 C   0  0  0  0  0  0  0  0  0  0  0  0
    9.3590    2.9270    0.0000 C   0  0  0  0  0  0  0  0  0  0  0  0
   10.3056    2.6158    0.0000 N   0  0  0  0  0  0  0  0  0  0  0  0
   10.3020    1.6194    0.0000 N   0  0  0  0  0  0  0  0  0  0  0  0
   11.0402    0.9500    0.0000 N   0  0  0  0  0  0  0  0  0  0  0  0
   10.8294   -0.0240    0.0000 C   0  0  0  0  0  0  0  0  0  0  0  0
    9.8806   -0.3284    0.0000 C   0  0  0  0  0  0  0  0  0  0  0  0
    9.1426    0.3410    0.0000 C   0  0  0  0  0  0  0  0  0  0  0  0
    9.3532    1.3148    0.0000 C   0  0  0  0  0  0  0  0  0  0  0  0
    8.7704    2.1230    0.0000 C   0  0  0  0  0  0  0  0  0  0  0  0
    7.7740    2.1266    0.0000 C   0  0  0  0  0  0  0  0  0  0  0  0
    7.2772    2.9944    0.0000 C   0  0  0  0  0  0  0  0  0  0  0  0
    6.2772    2.9980    0.0000 C   0  0  0  0  0  0  0  0  0  0  0  0
    5.7740    2.1338    0.0000 N   0  0  0  0  0  0  0  0  0  0  0  0
    6.2708    1.2660    0.0000 C   0  0  0  0  0  0  0  0  0  0  0  0
    5.7678    0.4018    0.0000 N   0  0  0  0  0  0  0  0  0  0  0  0
    4.7678    0.4052    0.0000 C   0  0  0  0  0  0  0  0  0  0  0  0
    4.2708    1.2728    0.0000 C   0  0  0  0  0  0  0  0  0  0  0  0
    3.2708    1.2762    0.0000 C   0  0  0  0  0  0  0  0  0  0  0  0
    2.7678    0.4120    0.0000 C   0  0  0  0  0  0  0  0  0  0  0  0
    1.7678    0.4154    0.0000 Cl  0  0  0  0  0  0  0  0  0  0  0  0
    3.2648   -0.4556    0.0000 C   0  0  0  0  0  0  0  0  0  0  0  0
    4.2648   -0.4590    0.0000 C   0  0  0  0  0  0  0  0  0  0  0  0
    2.7620   -1.3200    0.0000 C   0  0  0  0  0  0  0  0  0  0  0  0
    3.6264   -1.8228    0.0000 F   0  0  0  0  0  0  0  0  0  0  0  0
    2.7588   -2.3200    0.0000 F   0  0  0  0  0  0  0  0  0  0  0  0
    1.7620   -1.3168    0.0000 F   0  0  0  0  0  0  0  0  0  0  0  0
    7.2708    1.2624    0.0000 N   0  0  0  0  0  0  0  0  0  0  0  0
  1  2  1  0
  2  3  1  0
  3  4  2  0
  4  5  1  0
  5  6  2  0
  8  3  1  0
  7  8  2  0
  6  7  1  0
  6  9  1  0
  9 10  2  0
 10 11  1  0
 11 12  1  0
 12 13  2  0
 13 14  1  0
 14 15  2  0
 16 11  1  0
 15 16  1  0
 17  9  1  0
 16 17  2  0
 17 18  1  0
 18 19  2  0
 19 20  1  0
 20 21  2  0
 21 22  1  0
 23 24  1  0
 24 25  2  0
 25 26  1  0
 26 27  2  0
 27 28  1  0
 27 29  1  0
 30 24  1  0
 29 30  2  0
 29 31  1  0
 31 32  1  0
 31 33  1  0
 31 34  1  0
 22 23  1  0
 35 18  1  0
 22 35  2  0
M  END
>  <compound_chembl_id>  (74) 
CHEMBL188794

>  <assay_id>  (74) 
302524

>  <doc_id>  (74) 
21080

>  <description>  (74) 
Binding affinity for human cyclin-dependent kinase 2

>  <assay_organism>  (74) 
Homo sapiens

>  <assay_chembl_id>  (74) 
CHEMBL827377

>  <aidx>  (74) 
CLD0

>  <pref_name>  (74) 
Cyclin-dependent kinase 2

>  <activity_id>  (74) 
1467832

>  <molregno>  (74) 
313331

>  <standard_relation>  (74) 
>

>  <standard_value>  (74) 
19950.

>  <standard_units>  (74) 
nM

>  <standard_flag>  (74) 
1

>  <standard_type>  (74) 
Ki

>  <src_id (#1)>  (74) 
1

>  <type>  (74) 
Ki

>  <relation>  (74) 
>

>  <value>  (74) 
19.95

>  <units>  (74) 
uM

>  <standard_inchi_key>  (74) 
WFOPNLUSQIIBIX-UHFFFAOYSA-N

>  <canonical_smiles>  (74) 
COc1ccc(cc1)c2nn3ncccc3c2c4ccnc(Nc5ccc(Cl)c(c5)C(F)(F)F)n4

$$$$
CHEMBL188257
     RDKit          2D

 34 39  0  0  0  0  0  0  0  0999 V2000
    7.1608    6.9440    0.0000 C   0  0  0  0  0  0  0  0  0  0  0  0
    8.1382    6.7324    0.0000 O   0  0  0  0  0  0  0  0  0  0  0  0
    8.4436    5.7802    0.0000 C   0  0  0  0  0  0  0  0  0  0  0  0
    7.7718    5.0396    0.0000 C   0  0  0  0  0  0  0  0  0  0  0  0
    8.0772    4.0874    0.0000 C   0  0  0  0  0  0  0  0  0  0  0  0
    9.0546    3.8758    0.0000 C   0  0  0  0  0  0  0  0  0  0  0  0
    9.7264    4.6164    0.0000 C   0  0  0  0  0  0  0  0  0  0  0  0
    9.4210    5.5686    0.0000 C   0  0  0  0  0  0  0  0  0  0  0  0
    9.3590    2.9270    0.0000 C   0  0  0  0  0  0  0  0  0  0  0  0
   10.3056    2.6158    0.0000 N   0  0  0  0  0  0  0  0  0  0  0  0
   10.3020    1.6194    0.0000 N   0  0  0  0  0  0  0  0  0  0  0  0
   11.0402    0.9500    0.0000 N   0  0  0  0  0  0  0  0  0  0  0  0
   10.8294   -0.0240    0.0000 C   0  0  0  0  0  0  0  0  0  0  0  0
    9.8806   -0.3284    0.0000 C   0  0  0  0  0  0  0  0  0  0  0  0
    9.1426    0.3410    0.0000 C   0  0  0  0  0  0  0  0  0  0  0  0
    9.3532    1.3148    0.0000 C   0  0  0  0  0  0  0  0  0  0  0  0
    8.7704    2.1230    0.0000 C   0  0  0  0  0  0  0  0  0  0  0  0
    7.7740    2.1266    0.0000 C   0  0  0  0  0  0  0  0  0  0  0  0
    7.2772    2.9944    0.0000 C   0  0  0  0  0  0  0  0  0  0  0  0
    6.2772    2.9980    0.0000 C   0  0  0  0  0  0  0  0  0  0  0  0
    5.7740    2.1338    0.0000 N   0  0  0  0  0  0  0  0  0  0  0  0
    6.2708    1.2660    0.0000 C   0  0  0  0  0  0  0  0  0  0  0  0
    5.7678    0.4018    0.0000 N   0  0  0  0  0  0  0  0  0  0  0  0
    4.7678    0.4052    0.0000 C   0  0  0  0  0  0  0  0  0  0  0  0
    4.2708    1.2728    0.0000 C   0  0  0  0  0  0  0  0  0  0  0  0
    3.2708    1.2762    0.0000 C   0  0  0  0  0  0  0  0  0  0  0  0
    2.7678    0.4120    0.0000 C   0  0  0  0  0  0  0  0  0  0  0  0
    1.7678    0.4154    0.0000 O   0  0  0  0  0  0  0  0  0  0  0  0
    1.2648   -0.4488    0.0000 C   0  0  0  0  0  0  0  0  0  0  0  0
    1.7622   -1.3166    0.0000 C   0  0  0  0  0  0  0  0  0  0  0  0
    2.7620   -1.3200    0.0000 O   0  0  0  0  0  0  0  0  0  0  0  0
    3.2648   -0.4556    0.0000 C   0  0  0  0  0  0  0  0  0  0  0  0
    4.2648   -0.4590    0.0000 C   0  0  0  0  0  0  0  0  0  0  0  0
    7.2708    1.2624    0.0000 N   0  0  0  0  0  0  0  0  0  0  0  0
  1  2  1  0
  2  3  1  0
  3  4  2  0
  4  5  1  0
  5  6  2  0
  8  3  1  0
  7  8  2  0
  6  7  1  0
  6  9  1  0
  9 10  2  0
 10 11  1  0
 11 12  1  0
 12 13  2  0
 13 14  1  0
 14 15  2  0
 16 11  1  0
 15 16  1  0
 17  9  1  0
 16 17  2  0
 17 18  1  0
 18 19  2  0
 19 20  1  0
 20 21  2  0
 21 22  1  0
 23 24  1  0
 24 25  2  0
 25 26  1  0
 26 27  2  0
 27 28  1  0
 28 29  1  0
 29 30  1  0
 30 31  1  0
 32 27  1  0
 31 32  1  0
 33 24  1  0
 32 33  2  0
 22 23  1  0
 34 18  1  0
 22 34  2  0
M  END
>  <compound_chembl_id>  (75) 
CHEMBL188257

>  <assay_id>  (75) 
302524

>  <doc_id>  (75) 
21080

>  <description>  (75) 
Binding affinity for human cyclin-dependent kinase 2

>  <assay_organism>  (75) 
Homo sapiens

>  <assay_chembl_id>  (75) 
CHEMBL827377

>  <aidx>  (75) 
CLD0

>  <pref_name>  (75) 
Cyclin-dependent kinase 2

>  <activity_id>  (75) 
1467834

>  <molregno>  (75) 
313107

>  <standard_relation>  (75) 
>

>  <standard_value>  (75) 
19950.

>  <standard_units>  (75) 
nM

>  <standard_flag>  (75) 
1

>  <standard_type>  (75) 
Ki

>  <src_id (#1)>  (75) 
1

>  <type>  (75) 
Ki

>  <relation>  (75) 
>

>  <value>  (75) 
19.95

>  <units>  (75) 
uM

>  <standard_inchi_key>  (75) 
PHMQSKGFSDGFMK-UHFFFAOYSA-N

>  <canonical_smiles>  (75) 
COc1ccc(cc1)c2nn3ncccc3c2c4ccnc(Nc5ccc6OCCOc6c5)n4

$$$$
CHEMBL189665
     RDKit          2D

 32 36  0  0  0  0  0  0  0  0999 V2000
    7.1860    6.4270    0.0000 F   0  0  0  0  0  0  0  0  0  0  0  0
    8.1382    6.7324    0.0000 C   0  0  0  0  0  0  0  0  0  0  0  0
    7.3976    7.4044    0.0000 F   0  0  0  0  0  0  0  0  0  0  0  0
    8.8102    7.4730    0.0000 F   0  0  0  0  0  0  0  0  0  0  0  0
    8.4436    5.7802    0.0000 C   0  0  0  0  0  0  0  0  0  0  0  0
    7.7718    5.0396    0.0000 C   0  0  0  0  0  0  0  0  0  0  0  0
    8.0772    4.0874    0.0000 C   0  0  0  0  0  0  0  0  0  0  0  0
    9.0546    3.8758    0.0000 C   0  0  0  0  0  0  0  0  0  0  0  0
    9.7264    4.6164    0.0000 C   0  0  0  0  0  0  0  0  0  0  0  0
    9.4210    5.5686    0.0000 C   0  0  0  0  0  0  0  0  0  0  0  0
    9.3590    2.9270    0.0000 C   0  0  0  0  0  0  0  0  0  0  0  0
   10.3056    2.6158    0.0000 N   0  0  0  0  0  0  0  0  0  0  0  0
   10.3020    1.6194    0.0000 N   0  0  0  0  0  0  0  0  0  0  0  0
   11.0402    0.9500    0.0000 N   0  0  0  0  0  0  0  0  0  0  0  0
   10.8294   -0.0240    0.0000 C   0  0  0  0  0  0  0  0  0  0  0  0
    9.8806   -0.3284    0.0000 C   0  0  0  0  0  0  0  0  0  0  0  0
    9.1426    0.3410    0.0000 C   0  0  0  0  0  0  0  0  0  0  0  0
    9.3532    1.3148    0.0000 C   0  0  0  0  0  0  0  0  0  0  0  0
    8.7704    2.1230    0.0000 C   0  0  0  0  0  0  0  0  0  0  0  0
    7.7740    2.1266    0.0000 C   0  0  0  0  0  0  0  0  0  0  0  0
    7.2772    2.9944    0.0000 C   0  0  0  0  0  0  0  0  0  0  0  0
    6.2772    2.9980    0.0000 C   0  0  0  0  0  0  0  0  0  0  0  0
    5.7740    2.1338    0.0000 N   0  0  0  0  0  0  0  0  0  0  0  0
    6.2708    1.2660    0.0000 C   0  0  0  0  0  0  0  0  0  0  0  0
    5.7678    0.4018    0.0000 N   0  0  0  0  0  0  0  0  0  0  0  0
    4.7678    0.4052    0.0000 C   0  0  0  0  0  0  0  0  0  0  0  0
    4.2708    1.2728    0.0000 C   0  0  0  0  0  0  0  0  0  0  0  0
    3.2708    1.2762    0.0000 C   0  0  0  0  0  0  0  0  0  0  0  0
    2.7678    0.4120    0.0000 C   0  0  0  0  0  0  0  0  0  0  0  0
    3.2648   -0.4556    0.0000 C   0  0  0  0  0  0  0  0  0  0  0  0
    4.2648   -0.4590    0.0000 C   0  0  0  0  0  0  0  0  0  0  0  0
    7.2708    1.2624    0.0000 N   0  0  0  0  0  0  0  0  0  0  0  0
  1  2  1  0
  2  3  1  0
  2  4  1  0
  2  5  1  0
  5  6  2  0
  6  7  1  0
  7  8  2  0
 10  5  1  0
  9 10  2  0
  8  9  1  0
  8 11  1  0
 11 12  2  0
 12 13  1  0
 13 14  1  0
 14 15  2  0
 15 16  1  0
 16 17  2  0
 18 13  1  0
 17 18  1  0
 19 11  1  0
 18 19  2  0
 19 20  1  0
 20 21  2  0
 21 22  1  0
 22 23  2  0
 23 24  1  0
 25 26  1  0
 26 27  2  0
 27 28  1  0
 28 29  2  0
 29 30  1  0
 31 26  1  0
 30 31  2  0
 24 25  1  0
 32 20  1  0
 24 32  2  0
M  END
>  <compound_chembl_id>  (76) 
CHEMBL189665

>  <assay_id>  (76) 
302524

>  <doc_id>  (76) 
21080

>  <description>  (76) 
Binding affinity for human cyclin-dependent kinase 2

>  <assay_organism>  (76) 
Homo sapiens

>  <assay_chembl_id>  (76) 
CHEMBL827377

>  <aidx>  (76) 
CLD0

>  <pref_name>  (76) 
Cyclin-dependent kinase 2

>  <activity_id>  (76) 
1467837

>  <molregno>  (76) 
312664

>  <standard_relation>  (76) 
>

>  <standard_value>  (76) 
19950.

>  <standard_units>  (76) 
nM

>  <standard_flag>  (76) 
1

>  <standard_type>  (76) 
Ki

>  <src_id (#1)>  (76) 
1

>  <type>  (76) 
Ki

>  <relation>  (76) 
>

>  <value>  (76) 
19.95

>  <units>  (76) 
uM

>  <standard_inchi_key>  (76) 
DNLDFDFYEYJYCL-UHFFFAOYSA-N

>  <canonical_smiles>  (76) 
FC(F)(F)c1ccc(cc1)c2nn3ncccc3c2c4ccnc(Nc5ccccc5)n4

$$$$
CHEMBL365840
     RDKit          2D

 36 40  0  0  0  0  0  0  0  0999 V2000
    7.1860    6.4270    0.0000 F   0  0  0  0  0  0  0  0  0  0  0  0
    8.1382    6.7324    0.0000 C   0  0  0  0  0  0  0  0  0  0  0  0
    7.3976    7.4044    0.0000 F   0  0  0  0  0  0  0  0  0  0  0  0
    8.8102    7.4730    0.0000 F   0  0  0  0  0  0  0  0  0  0  0  0
    8.4436    5.7802    0.0000 C   0  0  0  0  0  0  0  0  0  0  0  0
    7.7718    5.0396    0.0000 C   0  0  0  0  0  0  0  0  0  0  0  0
    8.0772    4.0874    0.0000 C   0  0  0  0  0  0  0  0  0  0  0  0
    9.0546    3.8758    0.0000 C   0  0  0  0  0  0  0  0  0  0  0  0
    9.7264    4.6164    0.0000 C   0  0  0  0  0  0  0  0  0  0  0  0
    9.4210    5.5686    0.0000 C   0  0  0  0  0  0  0  0  0  0  0  0
    9.3590    2.9270    0.0000 C   0  0  0  0  0  0  0  0  0  0  0  0
   10.3056    2.6158    0.0000 N   0  0  0  0  0  0  0  0  0  0  0  0
   10.3020    1.6194    0.0000 N   0  0  0  0  0  0  0  0  0  0  0  0
   11.0402    0.9500    0.0000 N   0  0  0  0  0  0  0  0  0  0  0  0
   10.8294   -0.0240    0.0000 C   0  0  0  0  0  0  0  0  0  0  0  0
    9.8806   -0.3284    0.0000 C   0  0  0  0  0  0  0  0  0  0  0  0
    9.1426    0.3410    0.0000 C   0  0  0  0  0  0  0  0  0  0  0  0
    9.3532    1.3148    0.0000 C   0  0  0  0  0  0  0  0  0  0  0  0
    8.7704    2.1230    0.0000 C   0  0  0  0  0  0  0  0  0  0  0  0
    7.7740    2.1266    0.0000 C   0  0  0  0  0  0  0  0  0  0  0  0
    7.2772    2.9944    0.0000 C   0  0  0  0  0  0  0  0  0  0  0  0
    6.2772    2.9980    0.0000 C   0  0  0  0  0  0  0  0  0  0  0  0
    5.7740    2.1338    0.0000 N   0  0  0  0  0  0  0  0  0  0  0  0
    6.2708    1.2660    0.0000 C   0  0  0  0  0  0  0  0  0  0  0  0
    5.7678    0.4018    0.0000 N   0  0  0  0  0  0  0  0  0  0  0  0
    4.7678    0.4052    0.0000 C   0  0  0  0  0  0  0  0  0  0  0  0
    4.2708    1.2728    0.0000 C   0  0  0  0  0  0  0  0  0  0  0  0
    3.2708    1.2762    0.0000 C   0  0  0  0  0  0  0  0  0  0  0  0
    2.7678    0.4120    0.0000 C   0  0  0  0  0  0  0  0  0  0  0  0
    3.2648   -0.4556    0.0000 C   0  0  0  0  0  0  0  0  0  0  0  0
    4.2648   -0.4590    0.0000 C   0  0  0  0  0  0  0  0  0  0  0  0
    2.7620   -1.3200    0.0000 C   0  0  0  0  0  0  0  0  0  0  0  0
    3.6264   -1.8228    0.0000 F   0  0  0  0  0  0  0  0  0  0  0  0
    2.7588   -2.3200    0.0000 F   0  0  0  0  0  0  0  0  0  0  0  0
    1.7620   -1.3168    0.0000 F   0  0  0  0  0  0  0  0  0  0  0  0
    7.2708    1.2624    0.0000 N   0  0  0  0  0  0  0  0  0  0  0  0
  1  2  1  0
  2  3  1  0
  2  4  1  0
  2  5  1  0
  5  6  2  0
  6  7  1  0
  7  8  2  0
 10  5  1  0
  9 10  2  0
  8  9  1  0
  8 11  1  0
 11 12  2  0
 12 13  1  0
 13 14  1  0
 14 15  2  0
 15 16  1  0
 16 17  2  0
 18 13  1  0
 17 18  1  0
 19 11  1  0
 18 19  2  0
 19 20  1  0
 20 21  2  0
 21 22  1  0
 22 23  2  0
 23 24  1  0
 25 26  1  0
 26 27  2  0
 27 28  1  0
 28 29  2  0
 29 30  1  0
 31 26  1  0
 30 31  2  0
 30 32  1  0
 32 33  1  0
 32 34  1  0
 32 35  1  0
 24 25  1  0
 36 20  1  0
 24 36  2  0
M  END
>  <compound_chembl_id>  (77) 
CHEMBL365840

>  <assay_id>  (77) 
302524

>  <doc_id>  (77) 
21080

>  <description>  (77) 
Binding affinity for human cyclin-dependent kinase 2

>  <assay_organism>  (77) 
Homo sapiens

>  <assay_chembl_id>  (77) 
CHEMBL827377

>  <aidx>  (77) 
CLD0

>  <pref_name>  (77) 
Cyclin-dependent kinase 2

>  <activity_id>  (77) 
1467839

>  <molregno>  (77) 
312583

>  <standard_relation>  (77) 
>

>  <standard_value>  (77) 
19950.

>  <standard_units>  (77) 
nM

>  <standard_flag>  (77) 
1

>  <standard_type>  (77) 
Ki

>  <src_id (#1)>  (77) 
1

>  <type>  (77) 
Ki

>  <relation>  (77) 
>

>  <value>  (77) 
19.95

>  <units>  (77) 
uM

>  <standard_inchi_key>  (77) 
QAZNLJCWSKKTPV-UHFFFAOYSA-N

>  <canonical_smiles>  (77) 
FC(F)(F)c1ccc(cc1)c2nn3ncccc3c2c4ccnc(Nc5cccc(c5)C(F)(F)F)n4

$$$$
CHEMBL188784
     RDKit          2D

 34 38  0  0  0  0  0  0  0  0999 V2000
    1.7678    0.4154    0.0000 F   0  0  0  0  0  0  0  0  0  0  0  0
    2.7678    0.4120    0.0000 C   0  0  0  0  0  0  0  0  0  0  0  0
    3.2708    1.2762    0.0000 C   0  0  0  0  0  0  0  0  0  0  0  0
    4.2708    1.2728    0.0000 C   0  0  0  0  0  0  0  0  0  0  0  0
    4.7678    0.4052    0.0000 C   0  0  0  0  0  0  0  0  0  0  0  0
    5.7678    0.4018    0.0000 N   0  0  0  0  0  0  0  0  0  0  0  0
    6.2708    1.2660    0.0000 C   0  0  0  0  0  0  0  0  0  0  0  0
    5.7740    2.1338    0.0000 N   0  0  0  0  0  0  0  0  0  0  0  0
    6.2772    2.9980    0.0000 C   0  0  0  0  0  0  0  0  0  0  0  0
    7.2772    2.9944    0.0000 C   0  0  0  0  0  0  0  0  0  0  0  0
    7.7740    2.1266    0.0000 C   0  0  0  0  0  0  0  0  0  0  0  0
    7.2708    1.2624    0.0000 N   0  0  0  0  0  0  0  0  0  0  0  0
    8.7704    2.1230    0.0000 C   0  0  0  0  0  0  0  0  0  0  0  0
    9.3590    2.9270    0.0000 C   0  0  0  0  0  0  0  0  0  0  0  0
   10.3056    2.6158    0.0000 N   0  0  0  0  0  0  0  0  0  0  0  0
   10.3020    1.6194    0.0000 N   0  0  0  0  0  0  0  0  0  0  0  0
   11.0402    0.9500    0.0000 N   0  0  0  0  0  0  0  0  0  0  0  0
   10.8294   -0.0240    0.0000 C   0  0  0  0  0  0  0  0  0  0  0  0
    9.8806   -0.3284    0.0000 C   0  0  0  0  0  0  0  0  0  0  0  0
    9.1426    0.3410    0.0000 C   0  0  0  0  0  0  0  0  0  0  0  0
    9.3532    1.3148    0.0000 C   0  0  0  0  0  0  0  0  0  0  0  0
    9.0546    3.8758    0.0000 C   0  0  0  0  0  0  0  0  0  0  0  0
    8.0772    4.0874    0.0000 C   0  0  0  0  0  0  0  0  0  0  0  0
    7.7718    5.0396    0.0000 C   0  0  0  0  0  0  0  0  0  0  0  0
    8.4436    5.7802    0.0000 C   0  0  0  0  0  0  0  0  0  0  0  0
    9.4210    5.5686    0.0000 C   0  0  0  0  0  0  0  0  0  0  0  0
    9.7264    4.6164    0.0000 C   0  0  0  0  0  0  0  0  0  0  0  0
    8.1382    6.7324    0.0000 C   0  0  0  0  0  0  0  0  0  0  0  0
    7.1860    6.4270    0.0000 F   0  0  0  0  0  0  0  0  0  0  0  0
    7.3976    7.4044    0.0000 F   0  0  0  0  0  0  0  0  0  0  0  0
    8.8102    7.4730    0.0000 F   0  0  0  0  0  0  0  0  0  0  0  0
    4.2648   -0.4590    0.0000 C   0  0  0  0  0  0  0  0  0  0  0  0
    3.2648   -0.4556    0.0000 C   0  0  0  0  0  0  0  0  0  0  0  0
    2.7620   -1.3200    0.0000 F   0  0  0  0  0  0  0  0  0  0  0  0
  1  2  1  0
  2  3  2  0
  3  4  1  0
  4  5  2  0
  6  7  1  0
  7  8  2  0
  8  9  1  0
  9 10  2  0
 10 11  1  0
 12  7  1  0
 11 12  2  0
 11 13  1  0
 13 14  1  0
 15 16  1  0
 16 17  1  0
 17 18  2  0
 18 19  1  0
 19 20  2  0
 21 13  2  0
 21 16  1  0
 20 21  1  0
 14 15  2  0
 14 22  1  0
 22 23  2  0
 23 24  1  0
 24 25  2  0
 27 22  1  0
 26 27  2  0
 25 26  1  0
 25 28  1  0
 28 29  1  0
 28 30  1  0
 28 31  1  0
  5  6  1  0
  5 32  1  0
 33  2  1  0
 32 33  2  0
 33 34  1  0
M  END
>  <compound_chembl_id>  (78) 
CHEMBL188784

>  <assay_id>  (78) 
302524

>  <doc_id>  (78) 
21080

>  <description>  (78) 
Binding affinity for human cyclin-dependent kinase 2

>  <assay_organism>  (78) 
Homo sapiens

>  <assay_chembl_id>  (78) 
CHEMBL827377

>  <aidx>  (78) 
CLD0

>  <pref_name>  (78) 
Cyclin-dependent kinase 2

>  <activity_id>  (78) 
1467946

>  <molregno>  (78) 
312728

>  <standard_relation>  (78) 
>

>  <standard_value>  (78) 
19950.

>  <standard_units>  (78) 
nM

>  <standard_flag>  (78) 
1

>  <standard_type>  (78) 
Ki

>  <src_id (#1)>  (78) 
1

>  <type>  (78) 
Ki

>  <relation>  (78) 
>

>  <value>  (78) 
19.95

>  <units>  (78) 
uM

>  <standard_inchi_key>  (78) 
KLEPBNXGYXGZGI-UHFFFAOYSA-N

>  <canonical_smiles>  (78) 
Fc1ccc(Nc2nccc(n2)c3c(nn4ncccc34)c5ccc(cc5)C(F)(F)F)cc1F

$$$$
CHEMBL185939
     RDKit          2D

 36 41  0  0  0  0  0  0  0  0999 V2000
    7.1860    6.4270    0.0000 F   0  0  0  0  0  0  0  0  0  0  0  0
    8.1382    6.7324    0.0000 C   0  0  0  0  0  0  0  0  0  0  0  0
    7.3976    7.4044    0.0000 F   0  0  0  0  0  0  0  0  0  0  0  0
    8.8102    7.4730    0.0000 F   0  0  0  0  0  0  0  0  0  0  0  0
    8.4436    5.7802    0.0000 C   0  0  0  0  0  0  0  0  0  0  0  0
    7.7718    5.0396    0.0000 C   0  0  0  0  0  0  0  0  0  0  0  0
    8.0772    4.0874    0.0000 C   0  0  0  0  0  0  0  0  0  0  0  0
    9.0546    3.8758    0.0000 C   0  0  0  0  0  0  0  0  0  0  0  0
    9.7264    4.6164    0.0000 C   0  0  0  0  0  0  0  0  0  0  0  0
    9.4210    5.5686    0.0000 C   0  0  0  0  0  0  0  0  0  0  0  0
    9.3590    2.9270    0.0000 C   0  0  0  0  0  0  0  0  0  0  0  0
   10.3056    2.6158    0.0000 N   0  0  0  0  0  0  0  0  0  0  0  0
   10.3020    1.6194    0.0000 N   0  0  0  0  0  0  0  0  0  0  0  0
   11.0402    0.9500    0.0000 N   0  0  0  0  0  0  0  0  0  0  0  0
   10.8294   -0.0240    0.0000 C   0  0  0  0  0  0  0  0  0  0  0  0
    9.8806   -0.3284    0.0000 C   0  0  0  0  0  0  0  0  0  0  0  0
    9.1426    0.3410    0.0000 C   0  0  0  0  0  0  0  0  0  0  0  0
    9.3532    1.3148    0.0000 C   0  0  0  0  0  0  0  0  0  0  0  0
    8.7704    2.1230    0.0000 C   0  0  0  0  0  0  0  0  0  0  0  0
    7.7740    2.1266    0.0000 C   0  0  0  0  0  0  0  0  0  0  0  0
    7.2772    2.9944    0.0000 C   0  0  0  0  0  0  0  0  0  0  0  0
    6.2772    2.9980    0.0000 C   0  0  0  0  0  0  0  0  0  0  0  0
    5.7740    2.1338    0.0000 N   0  0  0  0  0  0  0  0  0  0  0  0
    6.2708    1.2660    0.0000 C   0  0  0  0  0  0  0  0  0  0  0  0
    5.7678    0.4018    0.0000 N   0  0  0  0  0  0  0  0  0  0  0  0
    4.7678    0.4052    0.0000 C   0  0  0  0  0  0  0  0  0  0  0  0
    4.2708    1.2728    0.0000 C   0  0  0  0  0  0  0  0  0  0  0  0
    3.2708    1.2762    0.0000 C   0  0  0  0  0  0  0  0  0  0  0  0
    2.7678    0.4120    0.0000 C   0  0  0  0  0  0  0  0  0  0  0  0
    1.7678    0.4154    0.0000 O   0  0  0  0  0  0  0  0  0  0  0  0
    1.2648   -0.4488    0.0000 C   0  0  0  0  0  0  0  0  0  0  0  0
    1.7622   -1.3166    0.0000 C   0  0  0  0  0  0  0  0  0  0  0  0
    2.7620   -1.3200    0.0000 O   0  0  0  0  0  0  0  0  0  0  0  0
    3.2648   -0.4556    0.0000 C   0  0  0  0  0  0  0  0  0  0  0  0
    4.2648   -0.4590    0.0000 C   0  0  0  0  0  0  0  0  0  0  0  0
    7.2708    1.2624    0.0000 N   0  0  0  0  0  0  0  0  0  0  0  0
  1  2  1  0
  2  3  1  0
  2  4  1  0
  2  5  1  0
  5  6  2  0
  6  7  1  0
  7  8  2  0
 10  5  1  0
  9 10  2  0
  8  9  1  0
  8 11  1  0
 11 12  2  0
 12 13  1  0
 13 14  1  0
 14 15  2  0
 15 16  1  0
 16 17  2  0
 18 13  1  0
 17 18  1  0
 19 11  1  0
 18 19  2  0
 19 20  1  0
 20 21  2  0
 21 22  1  0
 22 23  2  0
 23 24  1  0
 25 26  1  0
 26 27  2  0
 27 28  1  0
 28 29  2  0
 29 30  1  0
 30 31  1  0
 31 32  1  0
 32 33  1  0
 34 29  1  0
 33 34  1  0
 35 26  1  0
 34 35  2  0
 24 25  1  0
 36 20  1  0
 24 36  2  0
M  END
>  <compound_chembl_id>  (79) 
CHEMBL185939

>  <assay_id>  (79) 
302524

>  <doc_id>  (79) 
21080

>  <description>  (79) 
Binding affinity for human cyclin-dependent kinase 2

>  <assay_organism>  (79) 
Homo sapiens

>  <assay_chembl_id>  (79) 
CHEMBL827377

>  <aidx>  (79) 
CLD0

>  <pref_name>  (79) 
Cyclin-dependent kinase 2

>  <activity_id>  (79) 
1467948

>  <molregno>  (79) 
312636

>  <standard_relation>  (79) 
>

>  <standard_value>  (79) 
19950.

>  <standard_units>  (79) 
nM

>  <standard_flag>  (79) 
1

>  <standard_type>  (79) 
Ki

>  <src_id (#1)>  (79) 
1

>  <type>  (79) 
Ki

>  <relation>  (79) 
>

>  <value>  (79) 
19.95

>  <units>  (79) 
uM

>  <standard_inchi_key>  (79) 
MQWZYEDJGHLFFI-UHFFFAOYSA-N

>  <canonical_smiles>  (79) 
FC(F)(F)c1ccc(cc1)c2nn3ncccc3c2c4ccnc(Nc5ccc6OCCOc6c5)n4

$$$$
CHEMBL189135
     RDKit          2D

 37 41  0  0  0  0  0  0  0  0999 V2000
    7.1860    6.4270    0.0000 F   0  0  0  0  0  0  0  0  0  0  0  0
    8.1382    6.7324    0.0000 C   0  0  0  0  0  0  0  0  0  0  0  0
    7.3976    7.4044    0.0000 F   0  0  0  0  0  0  0  0  0  0  0  0
    8.8102    7.4730    0.0000 F   0  0  0  0  0  0  0  0  0  0  0  0
    8.4436    5.7802    0.0000 C   0  0  0  0  0  0  0  0  0  0  0  0
    7.7718    5.0396    0.0000 C   0  0  0  0  0  0  0  0  0  0  0  0
    8.0772    4.0874    0.0000 C   0  0  0  0  0  0  0  0  0  0  0  0
    9.0546    3.8758    0.0000 C   0  0  0  0  0  0  0  0  0  0  0  0
    9.7264    4.6164    0.0000 C   0  0  0  0  0  0  0  0  0  0  0  0
    9.4210    5.5686    0.0000 C   0  0  0  0  0  0  0  0  0  0  0  0
    9.3590    2.9270    0.0000 C   0  0  0  0  0  0  0  0  0  0  0  0
   10.3056    2.6158    0.0000 N   0  0  0  0  0  0  0  0  0  0  0  0
   10.3020    1.6194    0.0000 N   0  0  0  0  0  0  0  0  0  0  0  0
   11.0402    0.9500    0.0000 N   0  0  0  0  0  0  0  0  0  0  0  0
   10.8294   -0.0240    0.0000 C   0  0  0  0  0  0  0  0  0  0  0  0
    9.8806   -0.3284    0.0000 C   0  0  0  0  0  0  0  0  0  0  0  0
    9.1426    0.3410    0.0000 C   0  0  0  0  0  0  0  0  0  0  0  0
    9.3532    1.3148    0.0000 C   0  0  0  0  0  0  0  0  0  0  0  0
    8.7704    2.1230    0.0000 C   0  0  0  0  0  0  0  0  0  0  0  0
    7.7740    2.1266    0.0000 C   0  0  0  0  0  0  0  0  0  0  0  0
    7.2772    2.9944    0.0000 C   0  0  0  0  0  0  0  0  0  0  0  0
    6.2772    2.9980    0.0000 C   0  0  0  0  0  0  0  0  0  0  0  0
    5.7740    2.1338    0.0000 N   0  0  0  0  0  0  0  0  0  0  0  0
    6.2708    1.2660    0.0000 C   0  0  0  0  0  0  0  0  0  0  0  0
    5.7678    0.4018    0.0000 N   0  0  0  0  0  0  0  0  0  0  0  0
    4.7678    0.4052    0.0000 C   0  0  0  0  0  0  0  0  0  0  0  0
    4.2708    1.2728    0.0000 C   0  0  0  0  0  0  0  0  0  0  0  0
    3.2708    1.2762    0.0000 C   0  0  0  0  0  0  0  0  0  0  0  0
    2.7678    0.4120    0.0000 C   0  0  0  0  0  0  0  0  0  0  0  0
    1.7678    0.4154    0.0000 Cl  0  0  0  0  0  0  0  0  0  0  0  0
    3.2648   -0.4556    0.0000 C   0  0  0  0  0  0  0  0  0  0  0  0
    4.2648   -0.4590    0.0000 C   0  0  0  0  0  0  0  0  0  0  0  0
    2.7620   -1.3200    0.0000 C   0  0  0  0  0  0  0  0  0  0  0  0
    3.6264   -1.8228    0.0000 F   0  0  0  0  0  0  0  0  0  0  0  0
    2.7588   -2.3200    0.0000 F   0  0  0  0  0  0  0  0  0  0  0  0
    1.7620   -1.3168    0.0000 F   0  0  0  0  0  0  0  0  0  0  0  0
    7.2708    1.2624    0.0000 N   0  0  0  0  0  0  0  0  0  0  0  0
  1  2  1  0
  2  3  1  0
  2  4  1  0
  2  5  1  0
  5  6  2  0
  6  7  1  0
  7  8  2  0
 10  5  1  0
  9 10  2  0
  8  9  1  0
  8 11  1  0
 11 12  2  0
 12 13  1  0
 13 14  1  0
 14 15  2  0
 15 16  1  0
 16 17  2  0
 18 13  1  0
 17 18  1  0
 19 11  1  0
 18 19  2  0
 19 20  1  0
 20 21  2  0
 21 22  1  0
 22 23  2  0
 23 24  1  0
 25 26  1  0
 26 27  2  0
 27 28  1  0
 28 29  2  0
 29 30  1  0
 29 31  1  0
 32 26  1  0
 31 32  2  0
 31 33  1  0
 33 34  1  0
 33 35  1  0
 33 36  1  0
 24 25  1  0
 37 20  1  0
 24 37  2  0
M  END
>  <compound_chembl_id>  (80) 
CHEMBL189135

>  <assay_id>  (80) 
302524

>  <doc_id>  (80) 
21080

>  <description>  (80) 
Binding affinity for human cyclin-dependent kinase 2

>  <assay_organism>  (80) 
Homo sapiens

>  <assay_chembl_id>  (80) 
CHEMBL827377

>  <aidx>  (80) 
CLD0

>  <pref_name>  (80) 
Cyclin-dependent kinase 2

>  <activity_id>  (80) 
1467950

>  <molregno>  (80) 
312793

>  <standard_relation>  (80) 
>

>  <standard_value>  (80) 
19950.

>  <standard_units>  (80) 
nM

>  <standard_flag>  (80) 
1

>  <standard_type>  (80) 
Ki

>  <src_id (#1)>  (80) 
1

>  <type>  (80) 
Ki

>  <relation>  (80) 
>

>  <value>  (80) 
19.95

>  <units>  (80) 
uM

>  <standard_inchi_key>  (80) 
LDICKFZOGWEUTB-UHFFFAOYSA-N

>  <canonical_smiles>  (80) 
FC(F)(F)c1ccc(cc1)c2nn3ncccc3c2c4ccnc(Nc5ccc(Cl)c(c5)C(F)(F)F)n4

$$$$
CHEMBL185910
     RDKit          2D

 32 36  0  0  0  0  0  0  0  0999 V2000
   10.8334    5.6374    0.0000 F   0  0  0  0  0  0  0  0  0  0  0  0
   10.0928    6.3092    0.0000 C   0  0  0  0  0  0  0  0  0  0  0  0
   11.0450    6.6146    0.0000 F   0  0  0  0  0  0  0  0  0  0  0  0
    9.7874    7.2614    0.0000 F   0  0  0  0  0  0  0  0  0  0  0  0
    9.4210    5.5686    0.0000 C   0  0  0  0  0  0  0  0  0  0  0  0
    8.4436    5.7802    0.0000 C   0  0  0  0  0  0  0  0  0  0  0  0
    7.7718    5.0396    0.0000 C   0  0  0  0  0  0  0  0  0  0  0  0
    8.0772    4.0874    0.0000 C   0  0  0  0  0  0  0  0  0  0  0  0
    9.0546    3.8758    0.0000 C   0  0  0  0  0  0  0  0  0  0  0  0
    9.7264    4.6164    0.0000 C   0  0  0  0  0  0  0  0  0  0  0  0
    9.3590    2.9270    0.0000 C   0  0  0  0  0  0  0  0  0  0  0  0
   10.3056    2.6158    0.0000 N   0  0  0  0  0  0  0  0  0  0  0  0
   10.3020    1.6194    0.0000 N   0  0  0  0  0  0  0  0  0  0  0  0
   11.0402    0.9500    0.0000 N   0  0  0  0  0  0  0  0  0  0  0  0
   10.8294   -0.0240    0.0000 C   0  0  0  0  0  0  0  0  0  0  0  0
    9.8806   -0.3284    0.0000 C   0  0  0  0  0  0  0  0  0  0  0  0
    9.1426    0.3410    0.0000 C   0  0  0  0  0  0  0  0  0  0  0  0
    9.3532    1.3148    0.0000 C   0  0  0  0  0  0  0  0  0  0  0  0
    8.7704    2.1230    0.0000 C   0  0  0  0  0  0  0  0  0  0  0  0
    7.7740    2.1266    0.0000 C   0  0  0  0  0  0  0  0  0  0  0  0
    7.2772    2.9944    0.0000 C   0  0  0  0  0  0  0  0  0  0  0  0
    6.2772    2.9980    0.0000 C   0  0  0  0  0  0  0  0  0  0  0  0
    5.7740    2.1338    0.0000 N   0  0  0  0  0  0  0  0  0  0  0  0
    6.2708    1.2660    0.0000 C   0  0  0  0  0  0  0  0  0  0  0  0
    5.7678    0.4018    0.0000 N   0  0  0  0  0  0  0  0  0  0  0  0
    4.7678    0.4052    0.0000 C   0  0  0  0  0  0  0  0  0  0  0  0
    4.2708    1.2728    0.0000 C   0  0  0  0  0  0  0  0  0  0  0  0
    3.2708    1.2762    0.0000 C   0  0  0  0  0  0  0  0  0  0  0  0
    2.7678    0.4120    0.0000 C   0  0  0  0  0  0  0  0  0  0  0  0
    3.2648   -0.4556    0.0000 C   0  0  0  0  0  0  0  0  0  0  0  0
    4.2648   -0.4590    0.0000 C   0  0  0  0  0  0  0  0  0  0  0  0
    7.2708    1.2624    0.0000 N   0  0  0  0  0  0  0  0  0  0  0  0
  1  2  1  0
  2  3  1  0
  2  4  1  0
  2  5  1  0
  5  6  2  0
  6  7  1  0
  7  8  2  0
  8  9  1  0
 10  5  1  0
  9 10  2  0
  9 11  1  0
 11 12  2  0
 12 13  1  0
 13 14  1  0
 14 15  2  0
 15 16  1  0
 16 17  2  0
 18 13  1  0
 17 18  1  0
 19 11  1  0
 18 19  2  0
 19 20  1  0
 20 21  2  0
 21 22  1  0
 22 23  2  0
 23 24  1  0
 25 26  1  0
 26 27  2  0
 27 28  1  0
 28 29  2  0
 29 30  1  0
 31 26  1  0
 30 31  2  0
 24 25  1  0
 32 20  1  0
 24 32  2  0
M  END
>  <compound_chembl_id>  (81) 
CHEMBL185910

>  <assay_id>  (81) 
302524

>  <doc_id>  (81) 
21080

>  <description>  (81) 
Binding affinity for human cyclin-dependent kinase 2

>  <assay_organism>  (81) 
Homo sapiens

>  <assay_chembl_id>  (81) 
CHEMBL827377

>  <aidx>  (81) 
CLD0

>  <pref_name>  (81) 
Cyclin-dependent kinase 2

>  <activity_id>  (81) 
1467952

>  <molregno>  (81) 
313000

>  <standard_relation>  (81) 
>

>  <standard_value>  (81) 
19950.

>  <standard_units>  (81) 
nM

>  <standard_flag>  (81) 
1

>  <standard_type>  (81) 
Ki

>  <src_id (#1)>  (81) 
1

>  <type>  (81) 
Ki

>  <relation>  (81) 
>

>  <value>  (81) 
19.95

>  <units>  (81) 
uM

>  <standard_inchi_key>  (81) 
CIIOPSPBOKEYJU-UHFFFAOYSA-N

>  <canonical_smiles>  (81) 
FC(F)(F)c1cccc(c1)c2nn3ncccc3c2c4ccnc(Nc5ccccc5)n4

$$$$
CHEMBL184656
     RDKit          2D

 34 38  0  0  0  0  0  0  0  0999 V2000
    1.7678    0.4154    0.0000 F   0  0  0  0  0  0  0  0  0  0  0  0
    2.7678    0.4120    0.0000 C   0  0  0  0  0  0  0  0  0  0  0  0
    3.2708    1.2762    0.0000 C   0  0  0  0  0  0  0  0  0  0  0  0
    4.2708    1.2728    0.0000 C   0  0  0  0  0  0  0  0  0  0  0  0
    4.7678    0.4052    0.0000 C   0  0  0  0  0  0  0  0  0  0  0  0
    5.7678    0.4018    0.0000 N   0  0  0  0  0  0  0  0  0  0  0  0
    6.2708    1.2660    0.0000 C   0  0  0  0  0  0  0  0  0  0  0  0
    5.7740    2.1338    0.0000 N   0  0  0  0  0  0  0  0  0  0  0  0
    6.2772    2.9980    0.0000 C   0  0  0  0  0  0  0  0  0  0  0  0
    7.2772    2.9944    0.0000 C   0  0  0  0  0  0  0  0  0  0  0  0
    7.7740    2.1266    0.0000 C   0  0  0  0  0  0  0  0  0  0  0  0
    7.2708    1.2624    0.0000 N   0  0  0  0  0  0  0  0  0  0  0  0
    8.7704    2.1230    0.0000 C   0  0  0  0  0  0  0  0  0  0  0  0
    9.3590    2.9270    0.0000 C   0  0  0  0  0  0  0  0  0  0  0  0
   10.3056    2.6158    0.0000 N   0  0  0  0  0  0  0  0  0  0  0  0
   10.3020    1.6194    0.0000 N   0  0  0  0  0  0  0  0  0  0  0  0
   11.0402    0.9500    0.0000 N   0  0  0  0  0  0  0  0  0  0  0  0
   10.8294   -0.0240    0.0000 C   0  0  0  0  0  0  0  0  0  0  0  0
    9.8806   -0.3284    0.0000 C   0  0  0  0  0  0  0  0  0  0  0  0
    9.1426    0.3410    0.0000 C   0  0  0  0  0  0  0  0  0  0  0  0
    9.3532    1.3148    0.0000 C   0  0  0  0  0  0  0  0  0  0  0  0
    9.0546    3.8758    0.0000 C   0  0  0  0  0  0  0  0  0  0  0  0
    8.0772    4.0874    0.0000 C   0  0  0  0  0  0  0  0  0  0  0  0
    7.7718    5.0396    0.0000 C   0  0  0  0  0  0  0  0  0  0  0  0
    8.4436    5.7802    0.0000 C   0  0  0  0  0  0  0  0  0  0  0  0
    9.4210    5.5686    0.0000 C   0  0  0  0  0  0  0  0  0  0  0  0
    9.7264    4.6164    0.0000 C   0  0  0  0  0  0  0  0  0  0  0  0
   10.0928    6.3092    0.0000 C   0  0  0  0  0  0  0  0  0  0  0  0
   10.8334    5.6374    0.0000 F   0  0  0  0  0  0  0  0  0  0  0  0
   11.0450    6.6146    0.0000 F   0  0  0  0  0  0  0  0  0  0  0  0
    9.7874    7.2614    0.0000 F   0  0  0  0  0  0  0  0  0  0  0  0
    4.2648   -0.4590    0.0000 C   0  0  0  0  0  0  0  0  0  0  0  0
    3.2648   -0.4556    0.0000 C   0  0  0  0  0  0  0  0  0  0  0  0
    2.7620   -1.3200    0.0000 F   0  0  0  0  0  0  0  0  0  0  0  0
  1  2  1  0
  2  3  2  0
  3  4  1  0
  4  5  2  0
  6  7  1  0
  7  8  2  0
  8  9  1  0
  9 10  2  0
 10 11  1  0
 12  7  1  0
 11 12  2  0
 11 13  1  0
 13 14  1  0
 15 16  1  0
 16 17  1  0
 17 18  2  0
 18 19  1  0
 19 20  2  0
 21 13  2  0
 21 16  1  0
 20 21  1  0
 14 15  2  0
 14 22  1  0
 22 23  2  0
 23 24  1  0
 24 25  2  0
 25 26  1  0
 27 22  1  0
 26 27  2  0
 26 28  1  0
 28 29  1  0
 28 30  1  0
 28 31  1  0
  5  6  1  0
  5 32  1  0
 33  2  1  0
 32 33  2  0
 33 34  1  0
M  END
>  <compound_chembl_id>  (82) 
CHEMBL184656

>  <assay_id>  (82) 
302524

>  <doc_id>  (82) 
21080

>  <description>  (82) 
Binding affinity for human cyclin-dependent kinase 2

>  <assay_organism>  (82) 
Homo sapiens

>  <assay_chembl_id>  (82) 
CHEMBL827377

>  <aidx>  (82) 
CLD0

>  <pref_name>  (82) 
Cyclin-dependent kinase 2

>  <activity_id>  (82) 
1467954

>  <molregno>  (82) 
313296

>  <standard_relation>  (82) 
>

>  <standard_value>  (82) 
19950.

>  <standard_units>  (82) 
nM

>  <standard_flag>  (82) 
1

>  <standard_type>  (82) 
Ki

>  <src_id (#1)>  (82) 
1

>  <type>  (82) 
Ki

>  <relation>  (82) 
>

>  <value>  (82) 
19.95

>  <units>  (82) 
uM

>  <standard_inchi_key>  (82) 
QZNMZJGBBMCTDE-UHFFFAOYSA-N

>  <canonical_smiles>  (82) 
Fc1ccc(Nc2nccc(n2)c3c(nn4ncccc34)c5cccc(c5)C(F)(F)F)cc1F

$$$$
CHEMBL362155
     RDKit          2D

 36 41  0  0  0  0  0  0  0  0999 V2000
   10.8334    5.6374    0.0000 F   0  0  0  0  0  0  0  0  0  0  0  0
   10.0928    6.3092    0.0000 C   0  0  0  0  0  0  0  0  0  0  0  0
   11.0450    6.6146    0.0000 F   0  0  0  0  0  0  0  0  0  0  0  0
    9.7874    7.2614    0.0000 F   0  0  0  0  0  0  0  0  0  0  0  0
    9.4210    5.5686    0.0000 C   0  0  0  0  0  0  0  0  0  0  0  0
    8.4436    5.7802    0.0000 C   0  0  0  0  0  0  0  0  0  0  0  0
    7.7718    5.0396    0.0000 C   0  0  0  0  0  0  0  0  0  0  0  0
    8.0772    4.0874    0.0000 C   0  0  0  0  0  0  0  0  0  0  0  0
    9.0546    3.8758    0.0000 C   0  0  0  0  0  0  0  0  0  0  0  0
    9.7264    4.6164    0.0000 C   0  0  0  0  0  0  0  0  0  0  0  0
    9.3590    2.9270    0.0000 C   0  0  0  0  0  0  0  0  0  0  0  0
   10.3056    2.6158    0.0000 N   0  0  0  0  0  0  0  0  0  0  0  0
   10.3020    1.6194    0.0000 N   0  0  0  0  0  0  0  0  0  0  0  0
   11.0402    0.9500    0.0000 N   0  0  0  0  0  0  0  0  0  0  0  0
   10.8294   -0.0240    0.0000 C   0  0  0  0  0  0  0  0  0  0  0  0
    9.8806   -0.3284    0.0000 C   0  0  0  0  0  0  0  0  0  0  0  0
    9.1426    0.3410    0.0000 C   0  0  0  0  0  0  0  0  0  0  0  0
    9.3532    1.3148    0.0000 C   0  0  0  0  0  0  0  0  0  0  0  0
    8.7704    2.1230    0.0000 C   0  0  0  0  0  0  0  0  0  0  0  0
    7.7740    2.1266    0.0000 C   0  0  0  0  0  0  0  0  0  0  0  0
    7.2772    2.9944    0.0000 C   0  0  0  0  0  0  0  0  0  0  0  0
    6.2772    2.9980    0.0000 C   0  0  0  0  0  0  0  0  0  0  0  0
    5.7740    2.1338    0.0000 N   0  0  0  0  0  0  0  0  0  0  0  0
    6.2708    1.2660    0.0000 C   0  0  0  0  0  0  0  0  0  0  0  0
    5.7678    0.4018    0.0000 N   0  0  0  0  0  0  0  0  0  0  0  0
    4.7678    0.4052    0.0000 C   0  0  0  0  0  0  0  0  0  0  0  0
    4.2708    1.2728    0.0000 C   0  0  0  0  0  0  0  0  0  0  0  0
    3.2708    1.2762    0.0000 C   0  0  0  0  0  0  0  0  0  0  0  0
    2.7678    0.4120    0.0000 C   0  0  0  0  0  0  0  0  0  0  0  0
    1.7678    0.4154    0.0000 O   0  0  0  0  0  0  0  0  0  0  0  0
    1.2648   -0.4488    0.0000 C   0  0  0  0  0  0  0  0  0  0  0  0
    1.7622   -1.3166    0.0000 C   0  0  0  0  0  0  0  0  0  0  0  0
    2.7620   -1.3200    0.0000 O   0  0  0  0  0  0  0  0  0  0  0  0
    3.2648   -0.4556    0.0000 C   0  0  0  0  0  0  0  0  0  0  0  0
    4.2648   -0.4590    0.0000 C   0  0  0  0  0  0  0  0  0  0  0  0
    7.2708    1.2624    0.0000 N   0  0  0  0  0  0  0  0  0  0  0  0
  1  2  1  0
  2  3  1  0
  2  4  1  0
  2  5  1  0
  5  6  2  0
  6  7  1  0
  7  8  2  0
  8  9  1  0
 10  5  1  0
  9 10  2  0
  9 11  1  0
 11 12  2  0
 12 13  1  0
 13 14  1  0
 14 15  2  0
 15 16  1  0
 16 17  2  0
 18 13  1  0
 17 18  1  0
 19 11  1  0
 18 19  2  0
 19 20  1  0
 20 21  2  0
 21 22  1  0
 22 23  2  0
 23 24  1  0
 25 26  1  0
 26 27  2  0
 27 28  1  0
 28 29  2  0
 29 30  1  0
 30 31  1  0
 31 32  1  0
 32 33  1  0
 34 29  1  0
 33 34  1  0
 35 26  1  0
 34 35  2  0
 24 25  1  0
 36 20  1  0
 24 36  2  0
M  END
>  <compound_chembl_id>  (83) 
CHEMBL362155

>  <assay_id>  (83) 
302524

>  <doc_id>  (83) 
21080

>  <description>  (83) 
Binding affinity for human cyclin-dependent kinase 2

>  <assay_organism>  (83) 
Homo sapiens

>  <assay_chembl_id>  (83) 
CHEMBL827377

>  <aidx>  (83) 
CLD0

>  <pref_name>  (83) 
Cyclin-dependent kinase 2

>  <activity_id>  (83) 
1467956

>  <molregno>  (83) 
313033

>  <standard_relation>  (83) 
>

>  <standard_value>  (83) 
19950.

>  <standard_units>  (83) 
nM

>  <standard_flag>  (83) 
1

>  <standard_type>  (83) 
Ki

>  <src_id (#1)>  (83) 
1

>  <type>  (83) 
Ki

>  <relation>  (83) 
>

>  <value>  (83) 
19.95

>  <units>  (83) 
uM

>  <standard_inchi_key>  (83) 
OIPORLPSIAFDJE-UHFFFAOYSA-N

>  <canonical_smiles>  (83) 
FC(F)(F)c1cccc(c1)c2nn3ncccc3c2c4ccnc(Nc5ccc6OCCOc6c5)n4

$$$$
CHEMBL187135
     RDKit          2D

 37 41  0  0  0  0  0  0  0  0999 V2000
   10.8334    5.6374    0.0000 F   0  0  0  0  0  0  0  0  0  0  0  0
   10.0928    6.3092    0.0000 C   0  0  0  0  0  0  0  0  0  0  0  0
   11.0450    6.6146    0.0000 F   0  0  0  0  0  0  0  0  0  0  0  0
    9.7874    7.2614    0.0000 F   0  0  0  0  0  0  0  0  0  0  0  0
    9.4210    5.5686    0.0000 C   0  0  0  0  0  0  0  0  0  0  0  0
    8.4436    5.7802    0.0000 C   0  0  0  0  0  0  0  0  0  0  0  0
    7.7718    5.0396    0.0000 C   0  0  0  0  0  0  0  0  0  0  0  0
    8.0772    4.0874    0.0000 C   0  0  0  0  0  0  0  0  0  0  0  0
    9.0546    3.8758    0.0000 C   0  0  0  0  0  0  0  0  0  0  0  0
    9.7264    4.6164    0.0000 C   0  0  0  0  0  0  0  0  0  0  0  0
    9.3590    2.9270    0.0000 C   0  0  0  0  0  0  0  0  0  0  0  0
   10.3056    2.6158    0.0000 N   0  0  0  0  0  0  0  0  0  0  0  0
   10.3020    1.6194    0.0000 N   0  0  0  0  0  0  0  0  0  0  0  0
   11.0402    0.9500    0.0000 N   0  0  0  0  0  0  0  0  0  0  0  0
   10.8294   -0.0240    0.0000 C   0  0  0  0  0  0  0  0  0  0  0  0
    9.8806   -0.3284    0.0000 C   0  0  0  0  0  0  0  0  0  0  0  0
    9.1426    0.3410    0.0000 C   0  0  0  0  0  0  0  0  0  0  0  0
    9.3532    1.3148    0.0000 C   0  0  0  0  0  0  0  0  0  0  0  0
    8.7704    2.1230    0.0000 C   0  0  0  0  0  0  0  0  0  0  0  0
    7.7740    2.1266    0.0000 C   0  0  0  0  0  0  0  0  0  0  0  0
    7.2772    2.9944    0.0000 C   0  0  0  0  0  0  0  0  0  0  0  0
    6.2772    2.9980    0.0000 C   0  0  0  0  0  0  0  0  0  0  0  0
    5.7740    2.1338    0.0000 N   0  0  0  0  0  0  0  0  0  0  0  0
    6.2708    1.2660    0.0000 C   0  0  0  0  0  0  0  0  0  0  0  0
    5.7678    0.4018    0.0000 N   0  0  0  0  0  0  0  0  0  0  0  0
    4.7678    0.4052    0.0000 C   0  0  0  0  0  0  0  0  0  0  0  0
    4.2708    1.2728    0.0000 C   0  0  0  0  0  0  0  0  0  0  0  0
    3.2708    1.2762    0.0000 C   0  0  0  0  0  0  0  0  0  0  0  0
    2.7678    0.4120    0.0000 C   0  0  0  0  0  0  0  0  0  0  0  0
    1.7678    0.4154    0.0000 Cl  0  0  0  0  0  0  0  0  0  0  0  0
    3.2648   -0.4556    0.0000 C   0  0  0  0  0  0  0  0  0  0  0  0
    4.2648   -0.4590    0.0000 C   0  0  0  0  0  0  0  0  0  0  0  0
    2.7620   -1.3200    0.0000 C   0  0  0  0  0  0  0  0  0  0  0  0
    3.6264   -1.8228    0.0000 F   0  0  0  0  0  0  0  0  0  0  0  0
    2.7588   -2.3200    0.0000 F   0  0  0  0  0  0  0  0  0  0  0  0
    1.7620   -1.3168    0.0000 F   0  0  0  0  0  0  0  0  0  0  0  0
    7.2708    1.2624    0.0000 N   0  0  0  0  0  0  0  0  0  0  0  0
  1  2  1  0
  2  3  1  0
  2  4  1  0
  2  5  1  0
  5  6  2  0
  6  7  1  0
  7  8  2  0
  8  9  1  0
 10  5  1  0
  9 10  2  0
  9 11  1  0
 11 12  2  0
 12 13  1  0
 13 14  1  0
 14 15  2  0
 15 16  1  0
 16 17  2  0
 18 13  1  0
 17 18  1  0
 19 11  1  0
 18 19  2  0
 19 20  1  0
 20 21  2  0
 21 22  1  0
 22 23  2  0
 23 24  1  0
 25 26  1  0
 26 27  2  0
 27 28  1  0
 28 29  2  0
 29 30  1  0
 29 31  1  0
 32 26  1  0
 31 32  2  0
 31 33  1  0
 33 34  1  0
 33 35  1  0
 33 36  1  0
 24 25  1  0
 37 20  1  0
 24 37  2  0
M  END
>  <compound_chembl_id>  (84) 
CHEMBL187135

>  <assay_id>  (84) 
302524

>  <doc_id>  (84) 
21080

>  <description>  (84) 
Binding affinity for human cyclin-dependent kinase 2

>  <assay_organism>  (84) 
Homo sapiens

>  <assay_chembl_id>  (84) 
CHEMBL827377

>  <aidx>  (84) 
CLD0

>  <pref_name>  (84) 
Cyclin-dependent kinase 2

>  <activity_id>  (84) 
1467958

>  <molregno>  (84) 
312845

>  <standard_relation>  (84) 
>

>  <standard_value>  (84) 
19950.

>  <standard_units>  (84) 
nM

>  <standard_flag>  (84) 
1

>  <standard_type>  (84) 
Ki

>  <src_id (#1)>  (84) 
1

>  <type>  (84) 
Ki

>  <relation>  (84) 
>

>  <value>  (84) 
19.95

>  <units>  (84) 
uM

>  <standard_inchi_key>  (84) 
SKDKJZGYHPUDLM-UHFFFAOYSA-N

>  <canonical_smiles>  (84) 
FC(F)(F)c1cccc(c1)c2nn3ncccc3c2c4ccnc(Nc5ccc(Cl)c(c5)C(F)(F)F)n4

$$$$
CHEMBL189148
     RDKit          2D

 29 33  0  0  0  0  0  0  0  0999 V2000
    8.1382    6.7324    0.0000 Cl  0  0  0  0  0  0  0  0  0  0  0  0
    8.4436    5.7802    0.0000 C   0  0  0  0  0  0  0  0  0  0  0  0
    7.7718    5.0396    0.0000 C   0  0  0  0  0  0  0  0  0  0  0  0
    8.0772    4.0874    0.0000 C   0  0  0  0  0  0  0  0  0  0  0  0
    9.0546    3.8758    0.0000 C   0  0  0  0  0  0  0  0  0  0  0  0
    9.7264    4.6164    0.0000 C   0  0  0  0  0  0  0  0  0  0  0  0
    9.4210    5.5686    0.0000 C   0  0  0  0  0  0  0  0  0  0  0  0
    9.3590    2.9270    0.0000 C   0  0  0  0  0  0  0  0  0  0  0  0
   10.3056    2.6158    0.0000 N   0  0  0  0  0  0  0  0  0  0  0  0
   10.3020    1.6194    0.0000 N   0  0  0  0  0  0  0  0  0  0  0  0
   11.0402    0.9500    0.0000 N   0  0  0  0  0  0  0  0  0  0  0  0
   10.8294   -0.0240    0.0000 C   0  0  0  0  0  0  0  0  0  0  0  0
    9.8806   -0.3284    0.0000 C   0  0  0  0  0  0  0  0  0  0  0  0
    9.1426    0.3410    0.0000 C   0  0  0  0  0  0  0  0  0  0  0  0
    9.3532    1.3148    0.0000 C   0  0  0  0  0  0  0  0  0  0  0  0
    8.7704    2.1230    0.0000 C   0  0  0  0  0  0  0  0  0  0  0  0
    7.7740    2.1266    0.0000 C   0  0  0  0  0  0  0  0  0  0  0  0
    7.2772    2.9944    0.0000 C   0  0  0  0  0  0  0  0  0  0  0  0
    6.2772    2.9980    0.0000 C   0  0  0  0  0  0  0  0  0  0  0  0
    5.7740    2.1338    0.0000 N   0  0  0  0  0  0  0  0  0  0  0  0
    6.2708    1.2660    0.0000 C   0  0  0  0  0  0  0  0  0  0  0  0
    5.7678    0.4018    0.0000 N   0  0  0  0  0  0  0  0  0  0  0  0
    4.7678    0.4052    0.0000 C   0  0  0  0  0  0  0  0  0  0  0  0
    4.2708    1.2728    0.0000 C   0  0  0  0  0  0  0  0  0  0  0  0
    3.2708    1.2762    0.0000 C   0  0  0  0  0  0  0  0  0  0  0  0
    2.7678    0.4120    0.0000 C   0  0  0  0  0  0  0  0  0  0  0  0
    3.2648   -0.4556    0.0000 C   0  0  0  0  0  0  0  0  0  0  0  0
    4.2648   -0.4590    0.0000 C   0  0  0  0  0  0  0  0  0  0  0  0
    7.2708    1.2624    0.0000 N   0  0  0  0  0  0  0  0  0  0  0  0
  1  2  1  0
  2  3  2  0
  3  4  1  0
  4  5  2  0
  7  2  1  0
  6  7  2  0
  5  6  1  0
  5  8  1  0
  8  9  2  0
  9 10  1  0
 10 11  1  0
 11 12  2  0
 12 13  1  0
 13 14  2  0
 15 10  1  0
 14 15  1  0
 16  8  1  0
 15 16  2  0
 16 17  1  0
 17 18  2  0
 18 19  1  0
 19 20  2  0
 20 21  1  0
 22 23  1  0
 23 24  2  0
 24 25  1  0
 25 26  2  0
 26 27  1  0
 28 23  1  0
 27 28  2  0
 21 22  1  0
 29 17  1  0
 21 29  2  0
M  END
>  <compound_chembl_id>  (85) 
CHEMBL189148

>  <assay_id>  (85) 
302524

>  <doc_id>  (85) 
21080

>  <description>  (85) 
Binding affinity for human cyclin-dependent kinase 2

>  <assay_organism>  (85) 
Homo sapiens

>  <assay_chembl_id>  (85) 
CHEMBL827377

>  <aidx>  (85) 
CLD0

>  <pref_name>  (85) 
Cyclin-dependent kinase 2

>  <activity_id>  (85) 
1467960

>  <molregno>  (85) 
313135

>  <standard_relation>  (85) 
>

>  <standard_value>  (85) 
19950.

>  <standard_units>  (85) 
nM

>  <standard_flag>  (85) 
1

>  <standard_type>  (85) 
Ki

>  <src_id (#1)>  (85) 
1

>  <type>  (85) 
Ki

>  <relation>  (85) 
>

>  <value>  (85) 
19.95

>  <units>  (85) 
uM

>  <standard_inchi_key>  (85) 
KFMDNTIUGNJKPB-UHFFFAOYSA-N

>  <canonical_smiles>  (85) 
Clc1ccc(cc1)c2nn3ncccc3c2c4ccnc(Nc5ccccc5)n4

$$$$
CHEMBL362086
     RDKit          2D

 33 37  0  0  0  0  0  0  0  0999 V2000
    3.6416    2.6410    0.0000 F   0  0  0  0  0  0  0  0  0  0  0  0
    2.7738    2.1440    0.0000 C   0  0  0  0  0  0  0  0  0  0  0  0
    2.7772    3.1440    0.0000 F   0  0  0  0  0  0  0  0  0  0  0  0
    1.7738    2.1474    0.0000 F   0  0  0  0  0  0  0  0  0  0  0  0
    3.2708    1.2762    0.0000 C   0  0  0  0  0  0  0  0  0  0  0  0
    2.7678    0.4120    0.0000 C   0  0  0  0  0  0  0  0  0  0  0  0
    3.2648   -0.4556    0.0000 C   0  0  0  0  0  0  0  0  0  0  0  0
    4.2648   -0.4590    0.0000 C   0  0  0  0  0  0  0  0  0  0  0  0
    4.7678    0.4052    0.0000 C   0  0  0  0  0  0  0  0  0  0  0  0
    5.7678    0.4018    0.0000 N   0  0  0  0  0  0  0  0  0  0  0  0
    6.2708    1.2660    0.0000 C   0  0  0  0  0  0  0  0  0  0  0  0
    5.7740    2.1338    0.0000 N   0  0  0  0  0  0  0  0  0  0  0  0
    6.2772    2.9980    0.0000 C   0  0  0  0  0  0  0  0  0  0  0  0
    7.2772    2.9944    0.0000 C   0  0  0  0  0  0  0  0  0  0  0  0
    7.7740    2.1266    0.0000 C   0  0  0  0  0  0  0  0  0  0  0  0
    7.2708    1.2624    0.0000 N   0  0  0  0  0  0  0  0  0  0  0  0
    8.7704    2.1230    0.0000 C   0  0  0  0  0  0  0  0  0  0  0  0
    9.3590    2.9270    0.0000 C   0  0  0  0  0  0  0  0  0  0  0  0
   10.3056    2.6158    0.0000 N   0  0  0  0  0  0  0  0  0  0  0  0
   10.3020    1.6194    0.0000 N   0  0  0  0  0  0  0  0  0  0  0  0
   11.0402    0.9500    0.0000 N   0  0  0  0  0  0  0  0  0  0  0  0
   10.8294   -0.0240    0.0000 C   0  0  0  0  0  0  0  0  0  0  0  0
    9.8806   -0.3284    0.0000 C   0  0  0  0  0  0  0  0  0  0  0  0
    9.1426    0.3410    0.0000 C   0  0  0  0  0  0  0  0  0  0  0  0
    9.3532    1.3148    0.0000 C   0  0  0  0  0  0  0  0  0  0  0  0
    9.0546    3.8758    0.0000 C   0  0  0  0  0  0  0  0  0  0  0  0
    8.0772    4.0874    0.0000 C   0  0  0  0  0  0  0  0  0  0  0  0
    7.7718    5.0396    0.0000 C   0  0  0  0  0  0  0  0  0  0  0  0
    8.4436    5.7802    0.0000 C   0  0  0  0  0  0  0  0  0  0  0  0
    8.1382    6.7324    0.0000 Cl  0  0  0  0  0  0  0  0  0  0  0  0
    9.4210    5.5686    0.0000 C   0  0  0  0  0  0  0  0  0  0  0  0
    9.7264    4.6164    0.0000 C   0  0  0  0  0  0  0  0  0  0  0  0
    4.2708    1.2728    0.0000 C   0  0  0  0  0  0  0  0  0  0  0  0
  1  2  1  0
  2  3  1  0
  2  4  1  0
  2  5  1  0
  5  6  2  0
  6  7  1  0
  7  8  2  0
  8  9  1  0
 10 11  1  0
 11 12  2  0
 12 13  1  0
 13 14  2  0
 14 15  1  0
 16 11  1  0
 15 16  2  0
 15 17  1  0
 17 18  1  0
 19 20  1  0
 20 21  1  0
 21 22  2  0
 22 23  1  0
 23 24  2  0
 25 17  2  0
 25 20  1  0
 24 25  1  0
 18 19  2  0
 18 26  1  0
 26 27  2  0
 27 28  1  0
 28 29  2  0
 29 30  1  0
 29 31  1  0
 32 26  1  0
 31 32  2  0
  9 10  1  0
 33  5  1  0
  9 33  2  0
M  END
>  <compound_chembl_id>  (86) 
CHEMBL362086

>  <assay_id>  (86) 
302524

>  <doc_id>  (86) 
21080

>  <description>  (86) 
Binding affinity for human cyclin-dependent kinase 2

>  <assay_organism>  (86) 
Homo sapiens

>  <assay_chembl_id>  (86) 
CHEMBL827377

>  <aidx>  (86) 
CLD0

>  <pref_name>  (86) 
Cyclin-dependent kinase 2

>  <activity_id>  (86) 
1467962

>  <molregno>  (86) 
313232

>  <standard_relation>  (86) 
>

>  <standard_value>  (86) 
19950.

>  <standard_units>  (86) 
nM

>  <standard_flag>  (86) 
1

>  <standard_type>  (86) 
Ki

>  <src_id (#1)>  (86) 
1

>  <type>  (86) 
Ki

>  <relation>  (86) 
>

>  <value>  (86) 
19.95

>  <units>  (86) 
uM

>  <standard_inchi_key>  (86) 
KZJFAFWABJRTTI-UHFFFAOYSA-N

>  <canonical_smiles>  (86) 
FC(F)(F)c1cccc(Nc2nccc(n2)c3c(nn4ncccc34)c5ccc(Cl)cc5)c1

$$$$
CHEMBL364646
     RDKit          2D

 31 35  0  0  0  0  0  0  0  0999 V2000
    1.7678    0.4154    0.0000 F   0  0  0  0  0  0  0  0  0  0  0  0
    2.7678    0.4120    0.0000 C   0  0  0  0  0  0  0  0  0  0  0  0
    3.2708    1.2762    0.0000 C   0  0  0  0  0  0  0  0  0  0  0  0
    4.2708    1.2728    0.0000 C   0  0  0  0  0  0  0  0  0  0  0  0
    4.7678    0.4052    0.0000 C   0  0  0  0  0  0  0  0  0  0  0  0
    5.7678    0.4018    0.0000 N   0  0  0  0  0  0  0  0  0  0  0  0
    6.2708    1.2660    0.0000 C   0  0  0  0  0  0  0  0  0  0  0  0
    5.7740    2.1338    0.0000 N   0  0  0  0  0  0  0  0  0  0  0  0
    6.2772    2.9980    0.0000 C   0  0  0  0  0  0  0  0  0  0  0  0
    7.2772    2.9944    0.0000 C   0  0  0  0  0  0  0  0  0  0  0  0
    7.7740    2.1266    0.0000 C   0  0  0  0  0  0  0  0  0  0  0  0
    7.2708    1.2624    0.0000 N   0  0  0  0  0  0  0  0  0  0  0  0
    8.7704    2.1230    0.0000 C   0  0  0  0  0  0  0  0  0  0  0  0
    9.3590    2.9270    0.0000 C   0  0  0  0  0  0  0  0  0  0  0  0
   10.3056    2.6158    0.0000 N   0  0  0  0  0  0  0  0  0  0  0  0
   10.3020    1.6194    0.0000 N   0  0  0  0  0  0  0  0  0  0  0  0
   11.0402    0.9500    0.0000 N   0  0  0  0  0  0  0  0  0  0  0  0
   10.8294   -0.0240    0.0000 C   0  0  0  0  0  0  0  0  0  0  0  0
    9.8806   -0.3284    0.0000 C   0  0  0  0  0  0  0  0  0  0  0  0
    9.1426    0.3410    0.0000 C   0  0  0  0  0  0  0  0  0  0  0  0
    9.3532    1.3148    0.0000 C   0  0  0  0  0  0  0  0  0  0  0  0
    9.0546    3.8758    0.0000 C   0  0  0  0  0  0  0  0  0  0  0  0
    8.0772    4.0874    0.0000 C   0  0  0  0  0  0  0  0  0  0  0  0
    7.7718    5.0396    0.0000 C   0  0  0  0  0  0  0  0  0  0  0  0
    8.4436    5.7802    0.0000 C   0  0  0  0  0  0  0  0  0  0  0  0
    8.1382    6.7324    0.0000 Cl  0  0  0  0  0  0  0  0  0  0  0  0
    9.4210    5.5686    0.0000 C   0  0  0  0  0  0  0  0  0  0  0  0
    9.7264    4.6164    0.0000 C   0  0  0  0  0  0  0  0  0  0  0  0
    4.2648   -0.4590    0.0000 C   0  0  0  0  0  0  0  0  0  0  0  0
    3.2648   -0.4556    0.0000 C   0  0  0  0  0  0  0  0  0  0  0  0
    2.7620   -1.3200    0.0000 F   0  0  0  0  0  0  0  0  0  0  0  0
  1  2  1  0
  2  3  2  0
  3  4  1  0
  4  5  2  0
  6  7  1  0
  7  8  2  0
  8  9  1  0
  9 10  2  0
 10 11  1  0
 12  7  1  0
 11 12  2  0
 11 13  1  0
 13 14  1  0
 15 16  1  0
 16 17  1  0
 17 18  2  0
 18 19  1  0
 19 20  2  0
 21 13  2  0
 21 16  1  0
 20 21  1  0
 14 15  2  0
 14 22  1  0
 22 23  2  0
 23 24  1  0
 24 25  2  0
 25 26  1  0
 25 27  1  0
 28 22  1  0
 27 28  2  0
  5  6  1  0
  5 29  1  0
 30  2  1  0
 29 30  2  0
 30 31  1  0
M  END
>  <compound_chembl_id>  (87) 
CHEMBL364646

>  <assay_id>  (87) 
302524

>  <doc_id>  (87) 
21080

>  <description>  (87) 
Binding affinity for human cyclin-dependent kinase 2

>  <assay_organism>  (87) 
Homo sapiens

>  <assay_chembl_id>  (87) 
CHEMBL827377

>  <aidx>  (87) 
CLD0

>  <pref_name>  (87) 
Cyclin-dependent kinase 2

>  <activity_id>  (87) 
1467964

>  <molregno>  (87) 
313038

>  <standard_relation>  (87) 
>

>  <standard_value>  (87) 
19950.

>  <standard_units>  (87) 
nM

>  <standard_flag>  (87) 
1

>  <standard_type>  (87) 
Ki

>  <src_id (#1)>  (87) 
1

>  <type>  (87) 
Ki

>  <relation>  (87) 
>

>  <value>  (87) 
19.95

>  <units>  (87) 
uM

>  <standard_inchi_key>  (87) 
WXHHGKIGHYBHPQ-UHFFFAOYSA-N

>  <canonical_smiles>  (87) 
Fc1ccc(Nc2nccc(n2)c3c(nn4ncccc34)c5ccc(Cl)cc5)cc1F

$$$$
CHEMBL189874
     RDKit          2D

 34 38  0  0  0  0  0  0  0  0999 V2000
    3.6416    2.6410    0.0000 F   0  0  0  0  0  0  0  0  0  0  0  0
    2.7738    2.1440    0.0000 C   0  0  0  0  0  0  0  0  0  0  0  0
    2.7772    3.1440    0.0000 F   0  0  0  0  0  0  0  0  0  0  0  0
    1.7738    2.1474    0.0000 F   0  0  0  0  0  0  0  0  0  0  0  0
    3.2708    1.2762    0.0000 C   0  0  0  0  0  0  0  0  0  0  0  0
    4.2708    1.2728    0.0000 C   0  0  0  0  0  0  0  0  0  0  0  0
    4.7678    0.4052    0.0000 C   0  0  0  0  0  0  0  0  0  0  0  0
    5.7678    0.4018    0.0000 N   0  0  0  0  0  0  0  0  0  0  0  0
    6.2708    1.2660    0.0000 C   0  0  0  0  0  0  0  0  0  0  0  0
    5.7740    2.1338    0.0000 N   0  0  0  0  0  0  0  0  0  0  0  0
    6.2772    2.9980    0.0000 C   0  0  0  0  0  0  0  0  0  0  0  0
    7.2772    2.9944    0.0000 C   0  0  0  0  0  0  0  0  0  0  0  0
    7.7740    2.1266    0.0000 C   0  0  0  0  0  0  0  0  0  0  0  0
    7.2708    1.2624    0.0000 N   0  0  0  0  0  0  0  0  0  0  0  0
    8.7704    2.1230    0.0000 C   0  0  0  0  0  0  0  0  0  0  0  0
    9.3590    2.9270    0.0000 C   0  0  0  0  0  0  0  0  0  0  0  0
   10.3056    2.6158    0.0000 N   0  0  0  0  0  0  0  0  0  0  0  0
   10.3020    1.6194    0.0000 N   0  0  0  0  0  0  0  0  0  0  0  0
   11.0402    0.9500    0.0000 N   0  0  0  0  0  0  0  0  0  0  0  0
   10.8294   -0.0240    0.0000 C   0  0  0  0  0  0  0  0  0  0  0  0
    9.8806   -0.3284    0.0000 C   0  0  0  0  0  0  0  0  0  0  0  0
    9.1426    0.3410    0.0000 C   0  0  0  0  0  0  0  0  0  0  0  0
    9.3532    1.3148    0.0000 C   0  0  0  0  0  0  0  0  0  0  0  0
    9.0546    3.8758    0.0000 C   0  0  0  0  0  0  0  0  0  0  0  0
    8.0772    4.0874    0.0000 C   0  0  0  0  0  0  0  0  0  0  0  0
    7.7718    5.0396    0.0000 C   0  0  0  0  0  0  0  0  0  0  0  0
    8.4436    5.7802    0.0000 C   0  0  0  0  0  0  0  0  0  0  0  0
    8.1382    6.7324    0.0000 Cl  0  0  0  0  0  0  0  0  0  0  0  0
    9.4210    5.5686    0.0000 C   0  0  0  0  0  0  0  0  0  0  0  0
    9.7264    4.6164    0.0000 C   0  0  0  0  0  0  0  0  0  0  0  0
    4.2648   -0.4590    0.0000 C   0  0  0  0  0  0  0  0  0  0  0  0
    3.2648   -0.4556    0.0000 C   0  0  0  0  0  0  0  0  0  0  0  0
    2.7678    0.4120    0.0000 C   0  0  0  0  0  0  0  0  0  0  0  0
    1.7678    0.4154    0.0000 Cl  0  0  0  0  0  0  0  0  0  0  0  0
  1  2  1  0
  2  3  1  0
  2  4  1  0
  2  5  1  0
  5  6  2  0
  6  7  1  0
  8  9  1  0
  9 10  2  0
 10 11  1  0
 11 12  2  0
 12 13  1  0
 14  9  1  0
 13 14  2  0
 13 15  1  0
 15 16  1  0
 17 18  1  0
 18 19  1  0
 19 20  2  0
 20 21  1  0
 21 22  2  0
 23 15  2  0
 23 18  1  0
 22 23  1  0
 16 17  2  0
 16 24  1  0
 24 25  2  0
 25 26  1  0
 26 27  2  0
 27 28  1  0
 27 29  1  0
 30 24  1  0
 29 30  2  0
  7  8  1  0
  7 31  2  0
 31 32  1  0
 33  5  1  0
 32 33  2  0
 33 34  1  0
M  END
>  <compound_chembl_id>  (88) 
CHEMBL189874

>  <assay_id>  (88) 
302524

>  <doc_id>  (88) 
21080

>  <description>  (88) 
Binding affinity for human cyclin-dependent kinase 2

>  <assay_organism>  (88) 
Homo sapiens

>  <assay_chembl_id>  (88) 
CHEMBL827377

>  <aidx>  (88) 
CLD0

>  <pref_name>  (88) 
Cyclin-dependent kinase 2

>  <activity_id>  (88) 
1467966

>  <molregno>  (88) 
313332

>  <standard_relation>  (88) 
>

>  <standard_value>  (88) 
19950.

>  <standard_units>  (88) 
nM

>  <standard_flag>  (88) 
1

>  <standard_type>  (88) 
Ki

>  <src_id (#1)>  (88) 
1

>  <type>  (88) 
Ki

>  <relation>  (88) 
>

>  <value>  (88) 
19.95

>  <units>  (88) 
uM

>  <standard_inchi_key>  (88) 
YLIOQMZAOSFPMT-UHFFFAOYSA-N

>  <canonical_smiles>  (88) 
FC(F)(F)c1cc(Nc2nccc(n2)c3c(nn4ncccc34)c5ccc(Cl)cc5)ccc1Cl

$$$$
CHEMBL186826
     RDKit          2D

 33 38  0  0  0  0  0  0  0  0999 V2000
    8.1382    6.7324    0.0000 Cl  0  0  0  0  0  0  0  0  0  0  0  0
    8.4436    5.7802    0.0000 C   0  0  0  0  0  0  0  0  0  0  0  0
    7.7718    5.0396    0.0000 C   0  0  0  0  0  0  0  0  0  0  0  0
    8.0772    4.0874    0.0000 C   0  0  0  0  0  0  0  0  0  0  0  0
    9.0546    3.8758    0.0000 C   0  0  0  0  0  0  0  0  0  0  0  0
    9.7264    4.6164    0.0000 C   0  0  0  0  0  0  0  0  0  0  0  0
    9.4210    5.5686    0.0000 C   0  0  0  0  0  0  0  0  0  0  0  0
    9.3590    2.9270    0.0000 C   0  0  0  0  0  0  0  0  0  0  0  0
   10.3056    2.6158    0.0000 N   0  0  0  0  0  0  0  0  0  0  0  0
   10.3020    1.6194    0.0000 N   0  0  0  0  0  0  0  0  0  0  0  0
   11.0402    0.9500    0.0000 N   0  0  0  0  0  0  0  0  0  0  0  0
   10.8294   -0.0240    0.0000 C   0  0  0  0  0  0  0  0  0  0  0  0
    9.8806   -0.3284    0.0000 C   0  0  0  0  0  0  0  0  0  0  0  0
    9.1426    0.3410    0.0000 C   0  0  0  0  0  0  0  0  0  0  0  0
    9.3532    1.3148    0.0000 C   0  0  0  0  0  0  0  0  0  0  0  0
    8.7704    2.1230    0.0000 C   0  0  0  0  0  0  0  0  0  0  0  0
    7.7740    2.1266    0.0000 C   0  0  0  0  0  0  0  0  0  0  0  0
    7.2772    2.9944    0.0000 C   0  0  0  0  0  0  0  0  0  0  0  0
    6.2772    2.9980    0.0000 C   0  0  0  0  0  0  0  0  0  0  0  0
    5.7740    2.1338    0.0000 N   0  0  0  0  0  0  0  0  0  0  0  0
    6.2708    1.2660    0.0000 C   0  0  0  0  0  0  0  0  0  0  0  0
    5.7678    0.4018    0.0000 N   0  0  0  0  0  0  0  0  0  0  0  0
    4.7678    0.4052    0.0000 C   0  0  0  0  0  0  0  0  0  0  0  0
    4.2708    1.2728    0.0000 C   0  0  0  0  0  0  0  0  0  0  0  0
    3.2708    1.2762    0.0000 C   0  0  0  0  0  0  0  0  0  0  0  0
    2.7678    0.4120    0.0000 C   0  0  0  0  0  0  0  0  0  0  0  0
    1.7678    0.4154    0.0000 O   0  0  0  0  0  0  0  0  0  0  0  0
    1.2648   -0.4488    0.0000 C   0  0  0  0  0  0  0  0  0  0  0  0
    1.7622   -1.3166    0.0000 C   0  0  0  0  0  0  0  0  0  0  0  0
    2.7620   -1.3200    0.0000 O   0  0  0  0  0  0  0  0  0  0  0  0
    3.2648   -0.4556    0.0000 C   0  0  0  0  0  0  0  0  0  0  0  0
    4.2648   -0.4590    0.0000 C   0  0  0  0  0  0  0  0  0  0  0  0
    7.2708    1.2624    0.0000 N   0  0  0  0  0  0  0  0  0  0  0  0
  1  2  1  0
  2  3  2  0
  3  4  1  0
  4  5  2  0
  7  2  1  0
  6  7  2  0
  5  6  1  0
  5  8  1  0
  8  9  2  0
  9 10  1  0
 10 11  1  0
 11 12  2  0
 12 13  1  0
 13 14  2  0
 15 10  1  0
 14 15  1  0
 16  8  1  0
 15 16  2  0
 16 17  1  0
 17 18  2  0
 18 19  1  0
 19 20  2  0
 20 21  1  0
 22 23  1  0
 23 24  2  0
 24 25  1  0
 25 26  2  0
 26 27  1  0
 27 28  1  0
 28 29  1  0
 29 30  1  0
 31 26  1  0
 30 31  1  0
 32 23  1  0
 31 32  2  0
 21 22  1  0
 33 17  1  0
 21 33  2  0
M  END
>  <compound_chembl_id>  (89) 
CHEMBL186826

>  <assay_id>  (89) 
302524

>  <doc_id>  (89) 
21080

>  <description>  (89) 
Binding affinity for human cyclin-dependent kinase 2

>  <assay_organism>  (89) 
Homo sapiens

>  <assay_chembl_id>  (89) 
CHEMBL827377

>  <aidx>  (89) 
CLD0

>  <pref_name>  (89) 
Cyclin-dependent kinase 2

>  <activity_id>  (89) 
1467968

>  <molregno>  (89) 
313108

>  <standard_relation>  (89) 
>

>  <standard_value>  (89) 
19950.

>  <standard_units>  (89) 
nM

>  <standard_flag>  (89) 
1

>  <standard_type>  (89) 
Ki

>  <src_id (#1)>  (89) 
1

>  <type>  (89) 
Ki

>  <relation>  (89) 
>

>  <value>  (89) 
19.95

>  <units>  (89) 
uM

>  <standard_inchi_key>  (89) 
SALHUFFLOPHDJC-UHFFFAOYSA-N

>  <canonical_smiles>  (89) 
Clc1ccc(cc1)c2nn3ncccc3c2c4ccnc(Nc5ccc6OCCOc6c5)n4

$$$$
CHEMBL434158
     RDKit          2D

 29 33  0  0  0  0  0  0  0  0999 V2000
   11.5676   -0.6934    0.0000 C   0  0  0  0  0  0  0  0  0  0  0  0
   10.8294   -0.0240    0.0000 C   0  0  0  0  0  0  0  0  0  0  0  0
    9.8806   -0.3284    0.0000 C   0  0  0  0  0  0  0  0  0  0  0  0
    9.1426    0.3410    0.0000 C   0  0  0  0  0  0  0  0  0  0  0  0
    9.3532    1.3148    0.0000 C   0  0  0  0  0  0  0  0  0  0  0  0
    8.7704    2.1230    0.0000 C   0  0  0  0  0  0  0  0  0  0  0  0
    7.7740    2.1266    0.0000 C   0  0  0  0  0  0  0  0  0  0  0  0
    7.2772    2.9944    0.0000 C   0  0  0  0  0  0  0  0  0  0  0  0
    6.2772    2.9980    0.0000 C   0  0  0  0  0  0  0  0  0  0  0  0
    5.7740    2.1338    0.0000 N   0  0  0  0  0  0  0  0  0  0  0  0
    6.2708    1.2660    0.0000 C   0  0  0  0  0  0  0  0  0  0  0  0
    5.7678    0.4018    0.0000 N   0  0  0  0  0  0  0  0  0  0  0  0
    4.7678    0.4052    0.0000 C   0  0  0  0  0  0  0  0  0  0  0  0
    4.2708    1.2728    0.0000 C   0  0  0  0  0  0  0  0  0  0  0  0
    3.2708    1.2762    0.0000 C   0  0  0  0  0  0  0  0  0  0  0  0
    2.7678    0.4120    0.0000 C   0  0  0  0  0  0  0  0  0  0  0  0
    3.2648   -0.4556    0.0000 C   0  0  0  0  0  0  0  0  0  0  0  0
    4.2648   -0.4590    0.0000 C   0  0  0  0  0  0  0  0  0  0  0  0
    7.2708    1.2624    0.0000 N   0  0  0  0  0  0  0  0  0  0  0  0
    9.3590    2.9270    0.0000 C   0  0  0  0  0  0  0  0  0  0  0  0
   10.3056    2.6158    0.0000 N   0  0  0  0  0  0  0  0  0  0  0  0
   10.3020    1.6194    0.0000 N   0  0  0  0  0  0  0  0  0  0  0  0
   11.0402    0.9500    0.0000 N   0  0  0  0  0  0  0  0  0  0  0  0
    9.0546    3.8758    0.0000 C   0  0  0  0  0  0  0  0  0  0  0  0
    8.0772    4.0874    0.0000 C   0  0  0  0  0  0  0  0  0  0  0  0
    7.7718    5.0396    0.0000 C   0  0  0  0  0  0  0  0  0  0  0  0
    8.4436    5.7802    0.0000 C   0  0  0  0  0  0  0  0  0  0  0  0
    9.4210    5.5686    0.0000 C   0  0  0  0  0  0  0  0  0  0  0  0
    9.7264    4.6164    0.0000 C   0  0  0  0  0  0  0  0  0  0  0  0
  1  2  1  0
  2  3  1  0
  3  4  2  0
  4  5  1  0
  5  6  2  0
  7  8  2  0
  8  9  1  0
  9 10  2  0
 10 11  1  0
 12 13  1  0
 13 14  2  0
 14 15  1  0
 15 16  2  0
 16 17  1  0
 18 13  1  0
 17 18  2  0
 11 12  1  0
 19  7  1  0
 11 19  2  0
  6  7  1  0
  6 20  1  0
 22  5  1  0
 21 22  1  0
 23  2  2  0
 22 23  1  0
 20 21  2  0
 20 24  1  0
 24 25  2  0
 25 26  1  0
 26 27  2  0
 27 28  1  0
 29 24  1  0
 28 29  2  0
M  END
>  <compound_chembl_id>  (90) 
CHEMBL434158

>  <assay_id>  (90) 
302524

>  <doc_id>  (90) 
21080

>  <description>  (90) 
Binding affinity for human cyclin-dependent kinase 2

>  <assay_organism>  (90) 
Homo sapiens

>  <assay_chembl_id>  (90) 
CHEMBL827377

>  <aidx>  (90) 
CLD0

>  <pref_name>  (90) 
Cyclin-dependent kinase 2

>  <activity_id>  (90) 
1467970

>  <molregno>  (90) 
312661

>  <standard_relation>  (90) 
>

>  <standard_value>  (90) 
19950.

>  <standard_units>  (90) 
nM

>  <standard_flag>  (90) 
1

>  <standard_type>  (90) 
Ki

>  <src_id (#1)>  (90) 
1

>  <type>  (90) 
Ki

>  <relation>  (90) 
>

>  <value>  (90) 
19.95

>  <units>  (90) 
uM

>  <standard_inchi_key>  (90) 
SIUDXFQDMNOIOJ-UHFFFAOYSA-N

>  <canonical_smiles>  (90) 
Cc1ccc2c(c3ccnc(Nc4ccccc4)n3)c(nn2n1)c5ccccc5

$$$$
CHEMBL434729
     RDKit          2D

 33 37  0  0  0  0  0  0  0  0999 V2000
   11.5676   -0.6934    0.0000 C   0  0  0  0  0  0  0  0  0  0  0  0
   10.8294   -0.0240    0.0000 C   0  0  0  0  0  0  0  0  0  0  0  0
    9.8806   -0.3284    0.0000 C   0  0  0  0  0  0  0  0  0  0  0  0
    9.1426    0.3410    0.0000 C   0  0  0  0  0  0  0  0  0  0  0  0
    9.3532    1.3148    0.0000 C   0  0  0  0  0  0  0  0  0  0  0  0
    8.7704    2.1230    0.0000 C   0  0  0  0  0  0  0  0  0  0  0  0
    7.7740    2.1266    0.0000 C   0  0  0  0  0  0  0  0  0  0  0  0
    7.2772    2.9944    0.0000 C   0  0  0  0  0  0  0  0  0  0  0  0
    6.2772    2.9980    0.0000 C   0  0  0  0  0  0  0  0  0  0  0  0
    5.7740    2.1338    0.0000 N   0  0  0  0  0  0  0  0  0  0  0  0
    6.2708    1.2660    0.0000 C   0  0  0  0  0  0  0  0  0  0  0  0
    5.7678    0.4018    0.0000 N   0  0  0  0  0  0  0  0  0  0  0  0
    4.7678    0.4052    0.0000 C   0  0  0  0  0  0  0  0  0  0  0  0
    4.2708    1.2728    0.0000 C   0  0  0  0  0  0  0  0  0  0  0  0
    3.2708    1.2762    0.0000 C   0  0  0  0  0  0  0  0  0  0  0  0
    2.7678    0.4120    0.0000 C   0  0  0  0  0  0  0  0  0  0  0  0
    3.2648   -0.4556    0.0000 C   0  0  0  0  0  0  0  0  0  0  0  0
    4.2648   -0.4590    0.0000 C   0  0  0  0  0  0  0  0  0  0  0  0
    2.7620   -1.3200    0.0000 C   0  0  0  0  0  0  0  0  0  0  0  0
    3.6264   -1.8228    0.0000 F   0  0  0  0  0  0  0  0  0  0  0  0
    2.7588   -2.3200    0.0000 F   0  0  0  0  0  0  0  0  0  0  0  0
    1.7620   -1.3168    0.0000 F   0  0  0  0  0  0  0  0  0  0  0  0
    7.2708    1.2624    0.0000 N   0  0  0  0  0  0  0  0  0  0  0  0
    9.3590    2.9270    0.0000 C   0  0  0  0  0  0  0  0  0  0  0  0
   10.3056    2.6158    0.0000 N   0  0  0  0  0  0  0  0  0  0  0  0
   10.3020    1.6194    0.0000 N   0  0  0  0  0  0  0  0  0  0  0  0
   11.0402    0.9500    0.0000 N   0  0  0  0  0  0  0  0  0  0  0  0
    9.0546    3.8758    0.0000 C   0  0  0  0  0  0  0  0  0  0  0  0
    8.0772    4.0874    0.0000 C   0  0  0  0  0  0  0  0  0  0  0  0
    7.7718    5.0396    0.0000 C   0  0  0  0  0  0  0  0  0  0  0  0
    8.4436    5.7802    0.0000 C   0  0  0  0  0  0  0  0  0  0  0  0
    9.4210    5.5686    0.0000 C   0  0  0  0  0  0  0  0  0  0  0  0
    9.7264    4.6164    0.0000 C   0  0  0  0  0  0  0  0  0  0  0  0
  1  2  1  0
  2  3  1  0
  3  4  2  0
  4  5  1  0
  5  6  2  0
  7  8  2  0
  8  9  1  0
  9 10  2  0
 10 11  1  0
 12 13  1  0
 13 14  2  0
 14 15  1  0
 15 16  2  0
 16 17  1  0
 18 13  1  0
 17 18  2  0
 17 19  1  0
 19 20  1  0
 19 21  1  0
 19 22  1  0
 11 12  1  0
 23  7  1  0
 11 23  2  0
  6  7  1  0
  6 24  1  0
 26  5  1  0
 25 26  1  0
 27  2  2  0
 26 27  1  0
 24 25  2  0
 24 28  1  0
 28 29  2  0
 29 30  1  0
 30 31  2  0
 31 32  1  0
 33 28  1  0
 32 33  2  0
M  END
>  <compound_chembl_id>  (91) 
CHEMBL434729

>  <assay_id>  (91) 
302524

>  <doc_id>  (91) 
21080

>  <description>  (91) 
Binding affinity for human cyclin-dependent kinase 2

>  <assay_organism>  (91) 
Homo sapiens

>  <assay_chembl_id>  (91) 
CHEMBL827377

>  <aidx>  (91) 
CLD0

>  <pref_name>  (91) 
Cyclin-dependent kinase 2

>  <activity_id>  (91) 
1467974

>  <molregno>  (91) 
312788

>  <standard_relation>  (91) 
>

>  <standard_value>  (91) 
19950.

>  <standard_units>  (91) 
nM

>  <standard_flag>  (91) 
1

>  <standard_type>  (91) 
Ki

>  <src_id (#1)>  (91) 
1

>  <type>  (91) 
Ki

>  <relation>  (91) 
>

>  <value>  (91) 
19.95

>  <units>  (91) 
uM

>  <standard_inchi_key>  (91) 
YYNPIMSTDPEJPS-UHFFFAOYSA-N

>  <canonical_smiles>  (91) 
Cc1ccc2c(c3ccnc(Nc4cccc(c4)C(F)(F)F)n3)c(nn2n1)c5ccccc5

$$$$
